

        *** GPGPU-Sim Simulator Version 3.2.2  [build 17315] ***


GPGPU-Sim PTX: simulation mode 0 (can change with PTX_SIM_MODE_FUNC environment variable:
               1=functional simulation only, 0=detailed performance simulator)
GPGPU-Sim: Configuration options:

-network_mode                           1 # Interconnection network mode
-inter_config_file   config_fermi_islip.icnt # Interconnection network config file
-gpgpu_ptx_use_cuobjdump                    0 # Use cuobjdump to extract ptx and sass from binaries
-gpgpu_experimental_lib_support                    0 # Try to extract code from cuda libraries [Broken because of unknown cudaGetExportTable]
-gpgpu_ptx_convert_to_ptxplus                    0 # Convert SASS (native ISA) to ptxplus and run ptxplus
-gpgpu_ptx_force_max_capability                   20 # Force maximum compute capability
-gpgpu_ptx_inst_debug_to_file                    0 # Dump executed instructions' debug information to file
-gpgpu_ptx_inst_debug_file       inst_debug.txt # Executed instructions' debug output file
-gpgpu_ptx_inst_debug_thread_uid                    1 # Thread UID for executed instructions' debug output
-gpgpu_simd_model                       1 # 1 = post-dominator
-gpgpu_shader_core_pipeline              1536:32 # shader core pipeline config, i.e., {<nthread>:<warpsize>}
-gpgpu_tex_cache:l1  4:128:24,L:R:m:N,F:128:4,128:2 # per-shader L1 texture cache  (READ-ONLY) config  {<nsets>:<bsize>:<assoc>,<rep>:<wr>:<alloc>:<wr_alloc>,<mshr>:<N>:<merge>,<mq>:<rf>}
-gpgpu_const_cache:l1 64:64:2,L:R:f:N,A:2:32,4 # per-shader L1 constant memory cache  (READ-ONLY) config  {<nsets>:<bsize>:<assoc>,<rep>:<wr>:<alloc>:<wr_alloc>,<mshr>:<N>:<merge>,<mq>} 
-gpgpu_cache:il1     4:128:4,L:R:f:N,A:2:32,4 # shader L1 instruction cache config  {<nsets>:<bsize>:<assoc>,<rep>:<wr>:<alloc>:<wr_alloc>,<mshr>:<N>:<merge>,<mq>} 
-gpgpu_cache:dl1     32:128:4,L:L:m:N,A:32:8,8 # per-shader L1 data cache config  {<nsets>:<bsize>:<assoc>,<rep>:<wr>:<alloc>:<wr_alloc>,<mshr>:<N>:<merge>,<mq> | none}
-gpgpu_cache:dl1PrefL1                 none # per-shader L1 data cache config  {<nsets>:<bsize>:<assoc>,<rep>:<wr>:<alloc>:<wr_alloc>,<mshr>:<N>:<merge>,<mq> | none}
-gpgpu_cache:dl1PreShared                 none # per-shader L1 data cache config  {<nsets>:<bsize>:<assoc>,<rep>:<wr>:<alloc>:<wr_alloc>,<mshr>:<N>:<merge>,<mq> | none}
-gmem_skip_L1D                          0 # global memory access skip L1D cache (implements -Xptxas -dlcm=cg, default=no skip)
-gpgpu_perfect_mem                      0 # enable perfect memory mode (no cache miss)
-n_regfile_gating_group                    4 # group of lanes that should be read/written together)
-gpgpu_clock_gated_reg_file                    0 # enable clock gated reg file for power calculations
-gpgpu_clock_gated_lanes                    0 # enable clock gated lanes for power calculations
-gpgpu_shader_registers                32768 # Number of registers per shader core. Limits number of concurrent CTAs. (default 8192)
-gpgpu_shader_cta                       8 # Maximum number of concurrent CTAs in shader (default 8)
-gpgpu_n_clusters                      60 # number of processing clusters
-gpgpu_n_cores_per_cluster                    1 # number of simd cores per cluster
-gpgpu_n_cluster_ejection_buffer_size                    8 # number of packets in ejection buffer
-gpgpu_n_ldst_response_buffer_size                    2 # number of response packets in ld/st unit ejection buffer
-gpgpu_shmem_size                   16384 # Size of shared memory per shader core (default 16kB)
-gpgpu_shmem_size                   49152 # Size of shared memory per shader core (default 16kB)
-gpgpu_shmem_size_PrefL1                16384 # Size of shared memory per shader core (default 16kB)
-gpgpu_shmem_size_PrefShared                16384 # Size of shared memory per shader core (default 16kB)
-gpgpu_shmem_num_banks                   32 # Number of banks in the shared memory in each shader core (default 16)
-gpgpu_shmem_limited_broadcast                    0 # Limit shared memory to do one broadcast per cycle (default on)
-gpgpu_shmem_warp_parts                    1 # Number of portions a warp is divided into for shared memory bank conflict check 
-gpgpu_warpdistro_shader                   -1 # Specify which shader core to collect the warp size distribution from
-gpgpu_warp_issue_shader                    0 # Specify which shader core to collect the warp issue distribution from
-gpgpu_local_mem_map                    1 # Mapping from local memory space address to simulated GPU physical address space (default = enabled)
-gpgpu_num_reg_banks                   16 # Number of register banks (default = 8)
-gpgpu_reg_bank_use_warp_id                    0 # Use warp ID in mapping registers to banks (default = off)
-gpgpu_operand_collector_num_units_sp                    6 # number of collector units (default = 4)
-gpgpu_operand_collector_num_units_sfu                    8 # number of collector units (default = 4)
-gpgpu_operand_collector_num_units_mem                    2 # number of collector units (default = 2)
-gpgpu_operand_collector_num_units_gen                    0 # number of collector units (default = 0)
-gpgpu_operand_collector_num_in_ports_sp                    2 # number of collector unit in ports (default = 1)
-gpgpu_operand_collector_num_in_ports_sfu                    1 # number of collector unit in ports (default = 1)
-gpgpu_operand_collector_num_in_ports_mem                    1 # number of collector unit in ports (default = 1)
-gpgpu_operand_collector_num_in_ports_gen                    0 # number of collector unit in ports (default = 0)
-gpgpu_operand_collector_num_out_ports_sp                    2 # number of collector unit in ports (default = 1)
-gpgpu_operand_collector_num_out_ports_sfu                    1 # number of collector unit in ports (default = 1)
-gpgpu_operand_collector_num_out_ports_mem                    1 # number of collector unit in ports (default = 1)
-gpgpu_operand_collector_num_out_ports_gen                    0 # number of collector unit in ports (default = 0)
-gpgpu_coalesce_arch                   13 # Coalescing arch (default = 13, anything else is off for now)
-gpgpu_num_sched_per_core                    2 # Number of warp schedulers per core
-gpgpu_max_insn_issue_per_warp                    1 # Max number of instructions that can be issued per warp in one cycle by scheduler
-gpgpu_simt_core_sim_order                    1 # Select the simulation order of cores in a cluster (0=Fix, 1=Round-Robin)
-gpgpu_pipeline_widths        2,1,1,2,1,1,2 # Pipeline widths ID_OC_SP,ID_OC_SFU,ID_OC_MEM,OC_EX_SP,OC_EX_SFU,OC_EX_MEM,EX_WB
-gpgpu_num_sp_units                     2 # Number of SP units (default=1)
-gpgpu_num_sfu_units                    1 # Number of SF units (default=1)
-gpgpu_num_mem_units                    1 # Number if ldst units (default=1) WARNING: not hooked up to anything
-gpgpu_scheduler                      gto # Scheduler configuration: < lrr | gto | two_level_active > If two_level_active:<num_active_warps>:<inner_prioritization>:<outer_prioritization>For complete list of prioritization values see shader.h enum scheduler_prioritization_typeDefault: gto
-gpgpu_dram_scheduler                    1 # 0 = fifo, 1 = FR-FCFS (defaul)
-gpgpu_dram_partition_queues              8:8:8:8 # i2$:$2d:d2$:$2i
-l2_ideal                               0 # Use a ideal L2 cache that always hit
-gpgpu_cache:dl2     64:128:8,L:B:m:W,A:32:4,4:0,32 # unified banked L2 data cache config  {<nsets>:<bsize>:<assoc>,<rep>:<wr>:<alloc>:<wr_alloc>,<mshr>:<N>:<merge>,<mq>}
-gpgpu_cache:dl2_texture_only                    0 # L2 cache used for texture only
-gpgpu_n_mem                            6 # number of memory modules (e.g. memory controllers) in gpu
-gpgpu_n_sub_partition_per_mchannel                    2 # number of memory subpartition in each memory module
-gpgpu_n_mem_per_ctrlr                    2 # number of memory chips per memory controller
-gpgpu_memlatency_stat                   14 # track and display latency statistics 0x2 enables MC, 0x4 enables queue logs
-gpgpu_frfcfs_dram_sched_queue_size                   16 # 0 = unlimited (default); # entries per chip
-gpgpu_dram_return_queue_size                  116 # 0 = unlimited (default); # entries per chip
-gpgpu_num_groups                       2 # number of containers (application equal partitions)
-gpgpu_mode3                            0 # 3 apps or not
-gpgpu_sms_app1                        30 # core partitioning
-gpgpu_dram_buswidth                    4 # default = 4 bytes (8 bytes per cycle at DDR)
-gpgpu_dram_burst_length                    8 # Burst length of each DRAM request (default = 4 data bus cycle)
-dram_data_command_freq_ratio                    4 # Frequency ratio between DRAM data bus and command bus (default = 2 times, i.e. DDR)
-gpgpu_dram_timing_opt nbk=16:CCD=2:RRD=6:RCD=12:RAS=28:RP=12:RC=40: CL=12:WL=4:CDLR=5:WR=12:nbkgrp=4:CCDL=3:RTPL=2 # DRAM timing parameters = {nbk:tCCD:tRRD:tRCD:tRAS:tRP:tRC:CL:WL:tCDLR:tWR:nbkgrp:tCCDL:tRTPL}
-rop_latency                          120 # ROP queue latency (default 85)
-dram_latency                         100 # DRAM latency (default 30)
-gpu_char                               0 # gpu char activated
-gpu_app                                1 # gpu mul app code activated
-gpgpu_mem_addr_mapping dramid@8;00000000.00000000.00000000.00000000.0000RRRR.RRRRRRRR.BBBCCCCB.CCSSSSSS # mapping memory address to dram model {dramid@<start bit>;<memory address map>}
-gpgpu_mem_addr_test                    0 # run sweep test to check address mapping for aliased address
-gpgpu_mem_address_mask                    1 # 0 = old addressing mask, 1 = new addressing mask, 2 = new add. mask + flipped bank sel and chip sel bits
-gpuwattch_xml_file  gpuwattch_gtx480.xml # GPUWattch XML file
-power_simulation_enabled                    0 # Turn on power simulator (1=On, 0=Off)
-power_per_cycle_dump                    0 # Dump detailed power output each cycle
-power_trace_enabled                    0 # produce a file for the power trace (1=On, 0=Off)
-power_trace_zlevel                     6 # Compression level of the power trace output log (0=no comp, 9=highest)
-steady_power_levels_enabled                    0 # produce a file for the steady power levels (1=On, 0=Off)
-steady_state_definition                  8:4 # allowed deviation:number of samples
-gpgpu_max_cycle                        0 # terminates gpu simulation early (0 = no limit)
-gpgpu_max_insn                1000000000 # terminates gpu simulation early (0 = no limit)
-gpgpu_max_cta                          0 # terminates gpu simulation early (0 = no limit)
-gpgpu_runtime_stat                   500 # display runtime statistics such as dram utilization {<freq>:<flag>}
-liveness_message_freq                    1 # Minimum number of seconds between simulation liveness messages (0 = always print)
-gpgpu_flush_l1_cache                    0 # Flush L1 cache at the end of each kernel call
-gpgpu_flush_l2_cache                    0 # Flush L2 cache at the end of each kernel call
-gpgpu_deadlock_detect                    1 # Stop the simulation at deadlock (1=on (default), 0=off)
-gpgpu_ptx_instruction_classification                    0 # if enabled will classify ptx instruction types per kernel (Max 255 kernels now)
-gpgpu_ptx_sim_mode                     0 # Select between Performance (default) or Functional simulation (1)
-gpgpu_clock_domains 700.0:700.0:700.0:924.0 # Clock Domain Frequencies in MhZ {<Core Clock>:<ICNT Clock>:<L2 Clock>:<DRAM Clock>}
-gpgpu_max_concurrent_kernel                    8 # maximum kernels that can run concurrently on GPU
-gpgpu_cflog_interval                    0 # Interval between each snapshot in control flow logger
-visualizer_enabled                     0 # Turn on visualizer output (1=On, 0=Off)
-visualizer_outputfile                 NULL # Specifies the output log file for visualizer
-visualizer_zlevel                      6 # Compression level of the visualizer output log (0=no comp, 9=highest)
-trace_enabled                          0 # Turn on traces
-trace_components                    none # comma seperated list of traces to enable. Complete list found in trace_streams.tup. Default none
-trace_sampling_core                    0 # The core which is printed using CORE_DPRINTF. Default 0
-trace_sampling_memory_partition                   -1 # The memory partition which is printed using MEMPART_DPRINTF. Default -1 (i.e. all)
-enable_ptx_file_line_stats                    1 # Turn on PTX source line statistic profiling. (1 = On)
-ptx_line_stats_filename gpgpu_inst_stats.txt # Output file for PTX source line statistics.
-save_embedded_ptx                      0 # saves ptx files embedded in binary as <n>.ptx
-keep                                   0 # keep intermediate files created by GPGPU-Sim when interfacing with external programs
-gpgpu_ptx_save_converted_ptxplus                    0 # Saved converted ptxplus to a file
-ptx_opcode_latency_int         4,13,4,5,145 # Opcode latencies for integers <ADD,MAX,MUL,MAD,DIV>Default 1,1,19,25,145
-ptx_opcode_latency_fp          4,13,4,5,39 # Opcode latencies for single precision floating points <ADD,MAX,MUL,MAD,DIV>Default 1,1,1,1,30
-ptx_opcode_latency_dp         8,19,8,8,330 # Opcode latencies for double precision floating points <ADD,MAX,MUL,MAD,DIV>Default 8,8,8,8,335
-ptx_opcode_initiation_int            1,2,2,1,8 # Opcode initiation intervals for integers <ADD,MAX,MUL,MAD,DIV>Default 1,1,4,4,32
-ptx_opcode_initiation_fp            1,2,1,1,4 # Opcode initiation intervals for single precision floating points <ADD,MAX,MUL,MAD,DIV>Default 1,1,1,1,5
-ptx_opcode_initiation_dp         8,16,8,8,130 # Opcode initiation intervals for double precision floating points <ADD,MAX,MUL,MAD,DIV>Default 8,8,8,8,130
DRAM Timing Options:
nbk                                    16 # number of banks
CCD                                     2 # column to column delay
RRD                                     6 # minimal delay between activation of rows in different banks
RCD                                    12 # row to column delay
RAS                                    28 # time needed to activate row
RP                                     12 # time needed to precharge (deactivate) row
RC                                     40 # row cycle time
CDLR                                    5 # switching from write to read (changes tWTR)
WR                                     12 # last data-in to row precharge
CL                                     12 # CAS latency
WL                                      4 # Write latency
nbkgrp                                  4 # number of bank groups
CCDL                                    3 # column to column delay between accesses to different bank groups
RTPL                                    2 # read to precharge delay between accesses to different bank groups
Total number of memory sub partition = 12
addr_dec_mask[CHIP]  = 0000000000000000 	high:64 low:0
addr_dec_mask[BK]    = 000000000000e100 	high:16 low:8
addr_dec_mask[ROW]   = 000000000fff0000 	high:28 low:16
addr_dec_mask[COL]   = 0000000000001eff 	high:13 low:0
addr_dec_mask[BURST] = 000000000000003f 	high:6 low:0
sub_partition_id_mask = 0000000000000100
GPGPU-Sim uArch: clock freqs: 700000000.000000:700000000.000000:700000000.000000:924000000.000000
GPGPU-Sim uArch: clock periods: 0.00000000142857142857:0.00000000142857142857:0.00000000142857142857:0.00000000108225108225
*** Initializing Memory Statistics ***
GPGPU-Sim uArch: interconnect node map (shaderID+MemID to icntID)
GPGPU-Sim uArch: Memory nodes ID start from index: 60
GPGPU-Sim uArch:    0   1   2   3   4   5   6   7
GPGPU-Sim uArch:    8   9  10  11  12  13  14  15
GPGPU-Sim uArch:   16  17  18  19  20  21  22  23
GPGPU-Sim uArch:   24  25  26  27  28  29  30  31
GPGPU-Sim uArch:   32  33  34  35  36  37  38  39
GPGPU-Sim uArch:   40  41  42  43  44  45  46  47
GPGPU-Sim uArch:   48  49  50  51  52  53  54  55
GPGPU-Sim uArch:   56  57  58  59  60  61  62  63
GPGPU-Sim uArch:   64  65  66  67  68  69  70  71
GPGPU-Sim uArch: interconnect node reverse map (icntID to shaderID+MemID)
GPGPU-Sim uArch: Memory nodes start from ID: 60
GPGPU-Sim uArch:    0   1   2   3   4   5   6   7
GPGPU-Sim uArch:    8   9  10  11  12  13  14  15
GPGPU-Sim uArch:   16  17  18  19  20  21  22  23
GPGPU-Sim uArch:   24  25  26  27  28  29  30  31
GPGPU-Sim uArch:   32  33  34  35  36  37  38  39
GPGPU-Sim uArch:   40  41  42  43  44  45  46  47
GPGPU-Sim uArch:   48  49  50  51  52  53  54  55
GPGPU-Sim uArch:   56  57  58  59  60  61  62  63
GPGPU-Sim uArch:   64  65  66  67  68  69  70  71
GPGPU-Sim uArch: performance model initialization complete.
GPGPU-Sim PTX: __cudaRegisterFatBinary found PTX versions for 'main.cu', capability = compute_20
GPGPU-Sim PTX: Loading PTX for main.cu, capability = compute_20
GPGPU-Sim PTX: allocating constant region for "__cudart_i2opi_f" from 0x100 to 0x118 (global memory space) 1
GPGPU-Sim PTX: allocating stack frame region for .local "__cuda___cuda_result_3212" from 0x0 to 0x1c
GPGPU-Sim PTX: allocating stack frame region for .local "__cuda___cuda_result_6040" from 0x80 to 0x9c
GPGPU-Sim PTX: Warning -- ignoring pragma 'nounroll'
GPGPU-Sim PTX: Warning -- ignoring pragma 'nounroll'
GPGPU-Sim PTX: instruction assembly for function '_Z15myfriend_kernelPii'...   done.
GPGPU-Sim PTX: finding reconvergence points for '_Z15myfriend_kernelPii'...
GPGPU-Sim PTX: Finding dominators for '_Z15myfriend_kernelPii'...
GPGPU-Sim PTX: Finding immediate dominators for '_Z15myfriend_kernelPii'...
GPGPU-Sim PTX: Finding postdominators for '_Z15myfriend_kernelPii'...
GPGPU-Sim PTX: Finding immediate postdominators for '_Z15myfriend_kernelPii'...
GPGPU-Sim PTX: pre-decoding instructions for '_Z15myfriend_kernelPii'...
GPGPU-Sim PTX: reconvergence points for _Z15myfriend_kernelPii...
GPGPU-Sim PTX:  1 (potential) branch divergence @  PC=0x018 (_1.ptx:65) @%p1 bra $Lt_0_35586;
GPGPU-Sim PTX:    immediate post dominator      @  PC=0xb30 (_1.ptx:579) ld.param.u64 %rd14, [__cudaparm__Z15myfriend_kernelPii_a];
GPGPU-Sim PTX:  2 (potential) branch divergence @  PC=0x0b0 (_1.ptx:87) @%p3 bra $Lt_0_24578;
GPGPU-Sim PTX:    immediate post dominator      @  PC=0x600 (_1.ptx:338) @!%p2 bra $Lt_0_30210;
GPGPU-Sim PTX:  3 (potential) branch divergence @  PC=0x0c8 (_1.ptx:92) bra.uni $LDWendi___isinff_177_5;
GPGPU-Sim PTX:    immediate post dominator      @  PC=0x600 (_1.ptx:338) @!%p2 bra $Lt_0_30210;
GPGPU-Sim PTX:  4 (potential) branch divergence @  PC=0x0e0 (_1.ptx:97) @!%p4 bra $Lt_0_25090;
GPGPU-Sim PTX:    immediate post dominator      @  PC=0x518 (_1.ptx:297) mov.f32 %f19, %f8;
GPGPU-Sim PTX:  5 (potential) branch divergence @  PC=0x198 (_1.ptx:129) @%p5 bra $Lt_0_26114;
GPGPU-Sim PTX:    immediate post dominator      @  PC=0x1a0 (_1.ptx:132) st.local.u32 [__cuda___cuda_result_3212+24], %r18;
GPGPU-Sim PTX:  6 (potential) branch divergence @  PC=0x218 (_1.ptx:149) @%p6 bra $Lt_0_26626;
GPGPU-Sim PTX:    immediate post dominator      @  PC=0x268 (_1.ptx:165) shr.u32 %r17, %r18, 30;
GPGPU-Sim PTX:  7 (potential) branch divergence @  PC=0x2a0 (_1.ptx:174) @%p7 bra $Lt_0_27394;
GPGPU-Sim PTX:    immediate post dominator      @  PC=0x2e8 (_1.ptx:190) add.u32 %r51, %r17, %r48;
GPGPU-Sim PTX:  8 (potential) branch divergence @  PC=0x2c8 (_1.ptx:181) bra.uni $Lt_0_27138;
GPGPU-Sim PTX:    immediate post dominator      @  PC=0x2e8 (_1.ptx:190) add.u32 %r51, %r17, %r48;
GPGPU-Sim PTX:  9 (potential) branch divergence @  PC=0x320 (_1.ptx:198) @%p9 bra $Lt_0_27650;
GPGPU-Sim PTX:    immediate post dominator      @  PC=0x360 (_1.ptx:213) mov.s32 %r59, %r17;
GPGPU-Sim PTX: 10 (potential) branch divergence @  PC=0x378 (_1.ptx:216) @%p10 bra $Lt_0_35842;
GPGPU-Sim PTX:    immediate post dominator      @  PC=0x3d8 (_1.ptx:240) mul.lo.u32 %r32, %r18, -921707870;
GPGPU-Sim PTX: 11 (potential) branch divergence @  PC=0x3c0 (_1.ptx:231) @%p11 bra $Lt_0_28674;
GPGPU-Sim PTX:    immediate post dominator      @  PC=0x3c8 (_1.ptx:233) bra.uni $Lt_0_28162;
GPGPU-Sim PTX: 12 (potential) branch divergence @  PC=0x3c8 (_1.ptx:233) bra.uni $Lt_0_28162;
GPGPU-Sim PTX:    immediate post dominator      @  PC=0x3d8 (_1.ptx:240) mul.lo.u32 %r32, %r18, -921707870;
GPGPU-Sim PTX: 13 (potential) branch divergence @  PC=0x400 (_1.ptx:246) @%p12 bra $Lt_0_29186;
GPGPU-Sim PTX:    immediate post dominator      @  PC=0x430 (_1.ptx:259) mov.u32 %r69, 0;
GPGPU-Sim PTX: 14 (potential) branch divergence @  PC=0x4a8 (_1.ptx:275) bra.uni $LDWendi___internal_fmad_177_6;
GPGPU-Sim PTX:    immediate post dominator      @  PC=0x518 (_1.ptx:297) mov.f32 %f19, %f8;
GPGPU-Sim PTX: 15 (potential) branch divergence @  PC=0x540 (_1.ptx:302) @%p13 bra $Lt_0_29954;
GPGPU-Sim PTX:    immediate post dominator      @  PC=0x5d0 (_1.ptx:328) neg.f32 %f36, %f29;
GPGPU-Sim PTX: 16 (potential) branch divergence @  PC=0x590 (_1.ptx:314) bra.uni $Lt_0_29698;
GPGPU-Sim PTX:    immediate post dominator      @  PC=0x5d0 (_1.ptx:328) neg.f32 %f36, %f29;
GPGPU-Sim PTX: 17 (potential) branch divergence @  PC=0x600 (_1.ptx:338) @!%p2 bra $Lt_0_30210;
GPGPU-Sim PTX:    immediate post dominator      @  PC=0xae8 (_1.ptx:567) cvt.rn.f32.s32 %f64, %r5;
GPGPU-Sim PTX: 18 (potential) branch divergence @  PC=0x618 (_1.ptx:343) bra.uni $LDWendi___isinff_177_1;
GPGPU-Sim PTX:    immediate post dominator      @  PC=0xae8 (_1.ptx:567) cvt.rn.f32.s32 %f64, %r5;
GPGPU-Sim PTX: 19 (potential) branch divergence @  PC=0x630 (_1.ptx:348) @!%p15 bra $Lt_0_30722;
GPGPU-Sim PTX:    immediate post dominator      @  PC=0xa68 (_1.ptx:548) mov.f32 %f51, %f40;
GPGPU-Sim PTX: 20 (potential) branch divergence @  PC=0x6e8 (_1.ptx:380) @%p16 bra $Lt_0_31746;
GPGPU-Sim PTX:    immediate post dominator      @  PC=0x6f0 (_1.ptx:383) st.local.u32 [__cuda___cuda_result_6040+24], %r90;
GPGPU-Sim PTX: 21 (potential) branch divergence @  PC=0x768 (_1.ptx:400) @%p17 bra $Lt_0_32258;
GPGPU-Sim PTX:    immediate post dominator      @  PC=0x7b8 (_1.ptx:416) shr.u32 %r89, %r90, 30;
GPGPU-Sim PTX: 22 (potential) branch divergence @  PC=0x7f0 (_1.ptx:425) @%p18 bra $Lt_0_33026;
GPGPU-Sim PTX:    immediate post dominator      @  PC=0x838 (_1.ptx:441) add.u32 %r122, %r89, %r119;
GPGPU-Sim PTX: 23 (potential) branch divergence @  PC=0x818 (_1.ptx:432) bra.uni $Lt_0_32770;
GPGPU-Sim PTX:    immediate post dominator      @  PC=0x838 (_1.ptx:441) add.u32 %r122, %r89, %r119;
GPGPU-Sim PTX: 24 (potential) branch divergence @  PC=0x870 (_1.ptx:449) @%p20 bra $Lt_0_33282;
GPGPU-Sim PTX:    immediate post dominator      @  PC=0x8b0 (_1.ptx:464) mov.s32 %r130, %r89;
GPGPU-Sim PTX: 25 (potential) branch divergence @  PC=0x8c8 (_1.ptx:467) @%p21 bra $Lt_0_36098;
GPGPU-Sim PTX:    immediate post dominator      @  PC=0x928 (_1.ptx:491) mul.lo.u32 %r104, %r90, -921707870;
GPGPU-Sim PTX: 26 (potential) branch divergence @  PC=0x910 (_1.ptx:482) @%p22 bra $Lt_0_34306;
GPGPU-Sim PTX:    immediate post dominator      @  PC=0x918 (_1.ptx:484) bra.uni $Lt_0_33794;
GPGPU-Sim PTX: 27 (potential) branch divergence @  PC=0x918 (_1.ptx:484) bra.uni $Lt_0_33794;
GPGPU-Sim PTX:    immediate post dominator      @  PC=0x928 (_1.ptx:491) mul.lo.u32 %r104, %r90, -921707870;
GPGPU-Sim PTX: 28 (potential) branch divergence @  PC=0x950 (_1.ptx:497) @%p23 bra $Lt_0_34818;
GPGPU-Sim PTX:    immediate post dominator      @  PC=0x980 (_1.ptx:510) mov.u32 %r140, 0;
GPGPU-Sim PTX: 29 (potential) branch divergence @  PC=0x9f8 (_1.ptx:526) bra.uni $LDWendi___internal_fmad_177_2;
GPGPU-Sim PTX:    immediate post dominator      @  PC=0xa68 (_1.ptx:548) mov.f32 %f51, %f40;
GPGPU-Sim PTX: 30 (potential) branch divergence @  PC=0xb18 (_1.ptx:573) @%p24 bra $Lt_0_24322;
GPGPU-Sim PTX:    immediate post dominator      @  PC=0xb20 (_1.ptx:574) bra.uni $Lt_0_23810;
GPGPU-Sim PTX: 31 (potential) branch divergence @  PC=0xb20 (_1.ptx:574) bra.uni $Lt_0_23810;
GPGPU-Sim PTX:    immediate post dominator      @  PC=0xb30 (_1.ptx:579) ld.param.u64 %rd14, [__cudaparm__Z15myfriend_kernelPii_a];
GPGPU-Sim PTX: ... end of reconvergence points for _Z15myfriend_kernelPii
GPGPU-Sim PTX: ... done pre-decoding instructions for '_Z15myfriend_kernelPii'.
GPGPU-Sim PTX: allocating stack frame region for .local "__cuda___cuda_result_3284" from 0x0 to 0x1c
GPGPU-Sim PTX: allocating stack frame region for .local "__cuda___cuda_result_60112" from 0x80 to 0x9c
GPGPU-Sim PTX: Warning -- ignoring pragma 'nounroll'
GPGPU-Sim PTX: Warning -- ignoring pragma 'nounroll'
GPGPU-Sim PTX: instruction assembly for function '_Z18mystreaming_kernelPii'...   done.
GPGPU-Sim PTX: finding reconvergence points for '_Z18mystreaming_kernelPii'...
GPGPU-Sim PTX: Finding dominators for '_Z18mystreaming_kernelPii'...
GPGPU-Sim PTX: Finding immediate dominators for '_Z18mystreaming_kernelPii'...
GPGPU-Sim PTX: Finding postdominators for '_Z18mystreaming_kernelPii'...
GPGPU-Sim PTX: Finding immediate postdominators for '_Z18mystreaming_kernelPii'...
GPGPU-Sim PTX: pre-decoding instructions for '_Z18mystreaming_kernelPii'...
GPGPU-Sim PTX: reconvergence points for _Z18mystreaming_kernelPii...
GPGPU-Sim PTX:  1 (potential) branch divergence @  PC=0xb80 (_1.ptx:605) @%p1 bra $Lt_1_35586;
GPGPU-Sim PTX:    immediate post dominator      @  PC=0x1698 (_1.ptx:1119) ld.param.u64 %rd14, [__cudaparm__Z18mystreaming_kernelPii_a];
GPGPU-Sim PTX:  2 (potential) branch divergence @  PC=0xc18 (_1.ptx:627) @%p3 bra $Lt_1_24578;
GPGPU-Sim PTX:    immediate post dominator      @  PC=0x1168 (_1.ptx:878) @!%p2 bra $Lt_1_30210;
GPGPU-Sim PTX:  3 (potential) branch divergence @  PC=0xc30 (_1.ptx:632) bra.uni $LDWendi___isinff_178_5;
GPGPU-Sim PTX:    immediate post dominator      @  PC=0x1168 (_1.ptx:878) @!%p2 bra $Lt_1_30210;
GPGPU-Sim PTX:  4 (potential) branch divergence @  PC=0xc48 (_1.ptx:637) @!%p4 bra $Lt_1_25090;
GPGPU-Sim PTX:    immediate post dominator      @  PC=0x1080 (_1.ptx:837) mov.f32 %f19, %f8;
GPGPU-Sim PTX:  5 (potential) branch divergence @  PC=0xd00 (_1.ptx:669) @%p5 bra $Lt_1_26114;
GPGPU-Sim PTX:    immediate post dominator      @  PC=0xd08 (_1.ptx:672) st.local.u32 [__cuda___cuda_result_3284+24], %r18;
GPGPU-Sim PTX:  6 (potential) branch divergence @  PC=0xd80 (_1.ptx:689) @%p6 bra $Lt_1_26626;
GPGPU-Sim PTX:    immediate post dominator      @  PC=0xdd0 (_1.ptx:705) shr.u32 %r17, %r18, 30;
GPGPU-Sim PTX:  7 (potential) branch divergence @  PC=0xe08 (_1.ptx:714) @%p7 bra $Lt_1_27394;
GPGPU-Sim PTX:    immediate post dominator      @  PC=0xe50 (_1.ptx:730) add.u32 %r51, %r17, %r48;
GPGPU-Sim PTX:  8 (potential) branch divergence @  PC=0xe30 (_1.ptx:721) bra.uni $Lt_1_27138;
GPGPU-Sim PTX:    immediate post dominator      @  PC=0xe50 (_1.ptx:730) add.u32 %r51, %r17, %r48;
GPGPU-Sim PTX:  9 (potential) branch divergence @  PC=0xe88 (_1.ptx:738) @%p9 bra $Lt_1_27650;
GPGPU-Sim PTX:    immediate post dominator      @  PC=0xec8 (_1.ptx:753) mov.s32 %r59, %r17;
GPGPU-Sim PTX: 10 (potential) branch divergence @  PC=0xee0 (_1.ptx:756) @%p10 bra $Lt_1_35842;
GPGPU-Sim PTX:    immediate post dominator      @  PC=0xf40 (_1.ptx:780) mul.lo.u32 %r32, %r18, -921707870;
GPGPU-Sim PTX: 11 (potential) branch divergence @  PC=0xf28 (_1.ptx:771) @%p11 bra $Lt_1_28674;
GPGPU-Sim PTX:    immediate post dominator      @  PC=0xf30 (_1.ptx:773) bra.uni $Lt_1_28162;
GPGPU-Sim PTX: 12 (potential) branch divergence @  PC=0xf30 (_1.ptx:773) bra.uni $Lt_1_28162;
GPGPU-Sim PTX:    immediate post dominator      @  PC=0xf40 (_1.ptx:780) mul.lo.u32 %r32, %r18, -921707870;
GPGPU-Sim PTX: 13 (potential) branch divergence @  PC=0xf68 (_1.ptx:786) @%p12 bra $Lt_1_29186;
GPGPU-Sim PTX:    immediate post dominator      @  PC=0xf98 (_1.ptx:799) mov.u32 %r69, 0;
GPGPU-Sim PTX: 14 (potential) branch divergence @  PC=0x1010 (_1.ptx:815) bra.uni $LDWendi___internal_fmad_178_6;
GPGPU-Sim PTX:    immediate post dominator      @  PC=0x1080 (_1.ptx:837) mov.f32 %f19, %f8;
GPGPU-Sim PTX: 15 (potential) branch divergence @  PC=0x10a8 (_1.ptx:842) @%p13 bra $Lt_1_29954;
GPGPU-Sim PTX:    immediate post dominator      @  PC=0x1138 (_1.ptx:868) neg.f32 %f36, %f29;
GPGPU-Sim PTX: 16 (potential) branch divergence @  PC=0x10f8 (_1.ptx:854) bra.uni $Lt_1_29698;
GPGPU-Sim PTX:    immediate post dominator      @  PC=0x1138 (_1.ptx:868) neg.f32 %f36, %f29;
GPGPU-Sim PTX: 17 (potential) branch divergence @  PC=0x1168 (_1.ptx:878) @!%p2 bra $Lt_1_30210;
GPGPU-Sim PTX:    immediate post dominator      @  PC=0x1650 (_1.ptx:1107) cvt.rn.f32.s32 %f64, %r5;
GPGPU-Sim PTX: 18 (potential) branch divergence @  PC=0x1180 (_1.ptx:883) bra.uni $LDWendi___isinff_178_1;
GPGPU-Sim PTX:    immediate post dominator      @  PC=0x1650 (_1.ptx:1107) cvt.rn.f32.s32 %f64, %r5;
GPGPU-Sim PTX: 19 (potential) branch divergence @  PC=0x1198 (_1.ptx:888) @!%p15 bra $Lt_1_30722;
GPGPU-Sim PTX:    immediate post dominator      @  PC=0x15d0 (_1.ptx:1088) mov.f32 %f51, %f40;
GPGPU-Sim PTX: 20 (potential) branch divergence @  PC=0x1250 (_1.ptx:920) @%p16 bra $Lt_1_31746;
GPGPU-Sim PTX:    immediate post dominator      @  PC=0x1258 (_1.ptx:923) st.local.u32 [__cuda___cuda_result_60112+24], %r90;
GPGPU-Sim PTX: 21 (potential) branch divergence @  PC=0x12d0 (_1.ptx:940) @%p17 bra $Lt_1_32258;
GPGPU-Sim PTX:    immediate post dominator      @  PC=0x1320 (_1.ptx:956) shr.u32 %r89, %r90, 30;
GPGPU-Sim PTX: 22 (potential) branch divergence @  PC=0x1358 (_1.ptx:965) @%p18 bra $Lt_1_33026;
GPGPU-Sim PTX:    immediate post dominator      @  PC=0x13a0 (_1.ptx:981) add.u32 %r122, %r89, %r119;
GPGPU-Sim PTX: 23 (potential) branch divergence @  PC=0x1380 (_1.ptx:972) bra.uni $Lt_1_32770;
GPGPU-Sim PTX:    immediate post dominator      @  PC=0x13a0 (_1.ptx:981) add.u32 %r122, %r89, %r119;
GPGPU-Sim PTX: 24 (potential) branch divergence @  PC=0x13d8 (_1.ptx:989) @%p20 bra $Lt_1_33282;
GPGPU-Sim PTX:    immediate post dominator      @  PC=0x1418 (_1.ptx:1004) mov.s32 %r130, %r89;
GPGPU-Sim PTX: 25 (potential) branch divergence @  PC=0x1430 (_1.ptx:1007) @%p21 bra $Lt_1_36098;
GPGPU-Sim PTX:    immediate post dominator      @  PC=0x1490 (_1.ptx:1031) mul.lo.u32 %r104, %r90, -921707870;
GPGPU-Sim PTX: 26 (potential) branch divergence @  PC=0x1478 (_1.ptx:1022) @%p22 bra $Lt_1_34306;
GPGPU-Sim PTX:    immediate post dominator      @  PC=0x1480 (_1.ptx:1024) bra.uni $Lt_1_33794;
GPGPU-Sim PTX: 27 (potential) branch divergence @  PC=0x1480 (_1.ptx:1024) bra.uni $Lt_1_33794;
GPGPU-Sim PTX:    immediate post dominator      @  PC=0x1490 (_1.ptx:1031) mul.lo.u32 %r104, %r90, -921707870;
GPGPU-Sim PTX: 28 (potential) branch divergence @  PC=0x14b8 (_1.ptx:1037) @%p23 bra $Lt_1_34818;
GPGPU-Sim PTX:    immediate post dominator      @  PC=0x14e8 (_1.ptx:1050) mov.u32 %r140, 0;
GPGPU-Sim PTX: 29 (potential) branch divergence @  PC=0x1560 (_1.ptx:1066) bra.uni $LDWendi___internal_fmad_178_2;
GPGPU-Sim PTX:    immediate post dominator      @  PC=0x15d0 (_1.ptx:1088) mov.f32 %f51, %f40;
GPGPU-Sim PTX: 30 (potential) branch divergence @  PC=0x1680 (_1.ptx:1113) @%p24 bra $Lt_1_24322;
GPGPU-Sim PTX:    immediate post dominator      @  PC=0x1688 (_1.ptx:1114) bra.uni $Lt_1_23810;
GPGPU-Sim PTX: 31 (potential) branch divergence @  PC=0x1688 (_1.ptx:1114) bra.uni $Lt_1_23810;
GPGPU-Sim PTX:    immediate post dominator      @  PC=0x1698 (_1.ptx:1119) ld.param.u64 %rd14, [__cudaparm__Z18mystreaming_kernelPii_a];
GPGPU-Sim PTX: ... end of reconvergence points for _Z18mystreaming_kernelPii
GPGPU-Sim PTX: ... done pre-decoding instructions for '_Z18mystreaming_kernelPii'.
GPGPU-Sim PTX: finished parsing EMBEDDED .ptx file _1.ptx
GPGPU-Sim PTX: extracting embedded .ptx to temporary file "_ptx_zOOitr"
Running: cat _ptx_zOOitr | sed 's/.version 1.5/.version 1.4/' | sed 's/, texmode_independent//' | sed 's/\(\.extern \.const\[1\] .b8 \w\+\)\[\]/\1\[1\]/' | sed 's/const\[.\]/const\[0\]/g' > _ptx2_j9COED
GPGPU-Sim PTX: generating ptxinfo using "$CUDA_INSTALL_PATH/bin/ptxas --gpu-name=sm_20 -v _ptx2_j9COED --output-file  /dev/null 2> _ptx_zOOitrinfo"
GPGPU-Sim PTX: Kernel '_Z18mystreaming_kernelPii' : regs=23, lmem=4, smem=0, cmem=124
GPGPU-Sim PTX: Kernel '_Z15myfriend_kernelPii' : regs=23, lmem=4, smem=0, cmem=120
GPGPU-Sim PTX: removing ptxinfo using "rm -f _ptx_zOOitr _ptx2_j9COED _ptx_zOOitrinfo"
GPGPU-Sim PTX: loading globals with explicit initializers... 
GPGPU-Sim PTX: finished loading globals (0 bytes total).
GPGPU-Sim PTX: loading constants with explicit initializers...  done.
GPGPU-Sim PTX: __cudaRegisterFunction _Z18mystreaming_kernelPii : hostFun 0x0x4136d5, fat_cubin_handle = 1
GPGPU-Sim PTX: __cudaRegisterFunction _Z15myfriend_kernelPii : hostFun 0x0x413635, fat_cubin_handle = 1
GPGPU-Sim PTX: __cudaRegisterFatBinary found PTX versions for 'SPMV/main_spmv.cu', capability = compute_20
GPGPU-Sim PTX: Loading PTX for SPMV/main_spmv.cu, capability = compute_20
GPGPU-Sim PTX: allocating global region for "tex_x_float" from 0x118 to 0x11c (global memory space)
GPGPU-Sim PTX: allocating constant region for "jds_ptr_int" from 0x180 to 0x4fa0 (global memory space) 2
GPGPU-Sim PTX: allocating constant region for "sh_zcnt_int" from 0x5000 to 0x9e20 (global memory space) 3
GPGPU-Sim PTX: instruction assembly for function '_Z16spmv_jds_texturePfPKfPKiS3_S1_S3_i'...   done.
GPGPU-Sim PTX: finding reconvergence points for '_Z16spmv_jds_texturePfPKfPKiS3_S1_S3_i'...
GPGPU-Sim PTX: Finding dominators for '_Z16spmv_jds_texturePfPKfPKiS3_S1_S3_i'...
GPGPU-Sim PTX: Finding immediate dominators for '_Z16spmv_jds_texturePfPKfPKiS3_S1_S3_i'...
GPGPU-Sim PTX: Finding postdominators for '_Z16spmv_jds_texturePfPKfPKiS3_S1_S3_i'...
GPGPU-Sim PTX: Finding immediate postdominators for '_Z16spmv_jds_texturePfPKfPKiS3_S1_S3_i'...
GPGPU-Sim PTX: pre-decoding instructions for '_Z16spmv_jds_texturePfPKfPKiS3_S1_S3_i'...
GPGPU-Sim PTX: reconvergence points for _Z16spmv_jds_texturePfPKfPKiS3_S1_S3_i...
GPGPU-Sim PTX:  1 (potential) branch divergence @  PC=0x1718 (_2.ptx:79) @%p1 bra $Lt_0_3074;
GPGPU-Sim PTX:    immediate post dominator      @  PC=0x1aa8 (_2.ptx:233) exit;
GPGPU-Sim PTX:  2 (potential) branch divergence @  PC=0x1858 (_2.ptx:125) @%p2 bra $Lt_0_4098;
GPGPU-Sim PTX:    immediate post dominator      @  PC=0x1a48 (_2.ptx:217) fma.rn.f32 %f20, %f1, %f7, %f8;
GPGPU-Sim PTX:  3 (potential) branch divergence @  PC=0x18a8 (_2.ptx:138) @%p3 bra $Lt_0_5890;
GPGPU-Sim PTX:    immediate post dominator      @  PC=0x19c0 (_2.ptx:190) mov.u32 %r41, %r27;
GPGPU-Sim PTX:  4 (potential) branch divergence @  PC=0x19a8 (_2.ptx:182) @%p4 bra $Lt_0_4866;
GPGPU-Sim PTX:    immediate post dominator      @  PC=0x19b0 (_2.ptx:184) bra.uni $Lt_0_4354;
GPGPU-Sim PTX:  5 (potential) branch divergence @  PC=0x19b0 (_2.ptx:184) bra.uni $Lt_0_4354;
GPGPU-Sim PTX:    immediate post dominator      @  PC=0x19c0 (_2.ptx:190) mov.u32 %r41, %r27;
GPGPU-Sim PTX:  6 (potential) branch divergence @  PC=0x1a38 (_2.ptx:210) bra.uni $Lt_0_3842;
GPGPU-Sim PTX:    immediate post dominator      @  PC=0x1a48 (_2.ptx:217) fma.rn.f32 %f20, %f1, %f7, %f8;
GPGPU-Sim PTX:  7 (potential) branch divergence @  PC=0x1aa0 (_2.ptx:230) @%p5 bra $Lt_0_3586;
GPGPU-Sim PTX:    immediate post dominator      @  PC=0x1aa8 (_2.ptx:233) exit;
GPGPU-Sim PTX: ... end of reconvergence points for _Z16spmv_jds_texturePfPKfPKiS3_S1_S3_i
GPGPU-Sim PTX: ... done pre-decoding instructions for '_Z16spmv_jds_texturePfPKfPKiS3_S1_S3_i'.
GPGPU-Sim PTX: instruction assembly for function '_Z8spmv_jdsPfPKfPKiS3_S1_S3_i'...   done.
GPGPU-Sim PTX: finding reconvergence points for '_Z8spmv_jdsPfPKfPKiS3_S1_S3_i'...
GPGPU-Sim PTX: Finding dominators for '_Z8spmv_jdsPfPKfPKiS3_S1_S3_i'...
GPGPU-Sim PTX: Finding immediate dominators for '_Z8spmv_jdsPfPKfPKiS3_S1_S3_i'...
GPGPU-Sim PTX: Finding postdominators for '_Z8spmv_jdsPfPKfPKiS3_S1_S3_i'...
GPGPU-Sim PTX: Finding immediate postdominators for '_Z8spmv_jdsPfPKfPKiS3_S1_S3_i'...
GPGPU-Sim PTX: pre-decoding instructions for '_Z8spmv_jdsPfPKfPKiS3_S1_S3_i'...
GPGPU-Sim PTX: reconvergence points for _Z8spmv_jdsPfPKfPKiS3_S1_S3_i...
GPGPU-Sim PTX:  1 (potential) branch divergence @  PC=0x1af8 (_2.ptx:263) @%p1 bra $Lt_1_3074;
GPGPU-Sim PTX:    immediate post dominator      @  PC=0x1e08 (_2.ptx:397) exit;
GPGPU-Sim PTX:  2 (potential) branch divergence @  PC=0x1c10 (_2.ptx:303) @%p2 bra $Lt_1_4098;
GPGPU-Sim PTX:    immediate post dominator      @  PC=0x1da8 (_2.ptx:381) fma.rn.f32 %f6, %f1, %f2, %f3;
GPGPU-Sim PTX:  3 (potential) branch divergence @  PC=0x1c60 (_2.ptx:316) @%p3 bra $Lt_1_5890;
GPGPU-Sim PTX:    immediate post dominator      @  PC=0x1d50 (_2.ptx:363) fma.rn.f32 %f3, %f1, %f2, %f3;
GPGPU-Sim PTX:  4 (potential) branch divergence @  PC=0x1d38 (_2.ptx:354) @%p4 bra $Lt_1_4866;
GPGPU-Sim PTX:    immediate post dominator      @  PC=0x1d40 (_2.ptx:356) bra.uni $Lt_1_4354;
GPGPU-Sim PTX:  5 (potential) branch divergence @  PC=0x1d40 (_2.ptx:356) bra.uni $Lt_1_4354;
GPGPU-Sim PTX:    immediate post dominator      @  PC=0x1d50 (_2.ptx:363) fma.rn.f32 %f3, %f1, %f2, %f3;
GPGPU-Sim PTX:  6 (potential) branch divergence @  PC=0x1d98 (_2.ptx:374) bra.uni $Lt_1_3842;
GPGPU-Sim PTX:    immediate post dominator      @  PC=0x1da8 (_2.ptx:381) fma.rn.f32 %f6, %f1, %f2, %f3;
GPGPU-Sim PTX:  7 (potential) branch divergence @  PC=0x1e00 (_2.ptx:394) @%p5 bra $Lt_1_3586;
GPGPU-Sim PTX:    immediate post dominator      @  PC=0x1e08 (_2.ptx:397) exit;
GPGPU-Sim PTX: ... end of reconvergence points for _Z8spmv_jdsPfPKfPKiS3_S1_S3_i
GPGPU-Sim PTX: ... done pre-decoding instructions for '_Z8spmv_jdsPfPKfPKiS3_S1_S3_i'.
GPGPU-Sim PTX: finished parsing EMBEDDED .ptx file _2.ptx
GPGPU-Sim PTX: extracting embedded .ptx to temporary file "_ptx_Xh0x0P"
Running: cat _ptx_Xh0x0P | sed 's/.version 1.5/.version 1.4/' | sed 's/, texmode_independent//' | sed 's/\(\.extern \.const\[1\] .b8 \w\+\)\[\]/\1\[1\]/' | sed 's/const\[.\]/const\[0\]/g' > _ptx2_Cgqim2
GPGPU-Sim PTX: generating ptxinfo using "$CUDA_INSTALL_PATH/bin/ptxas --gpu-name=sm_20 -v _ptx2_Cgqim2 --output-file  /dev/null 2> _ptx_Xh0x0Pinfo"
GPGPU-Sim PTX: Kernel '_Z8spmv_jdsPfPKfPKiS3_S1_S3_i' : regs=22, lmem=0, smem=0, cmem=40092
GPGPU-Sim PTX: Kernel '_Z16spmv_jds_texturePfPKfPKiS3_S1_S3_i' : regs=21, lmem=0, smem=0, cmem=40088
GPGPU-Sim PTX: removing ptxinfo using "rm -f _ptx_Xh0x0P _ptx2_Cgqim2 _ptx_Xh0x0Pinfo"
GPGPU-Sim PTX: loading globals with explicit initializers... 
GPGPU-Sim PTX: finished loading globals (0 bytes total).
GPGPU-Sim PTX: loading constants with explicit initializers...  done.
GPGPU-Sim PTX: __cudaRegisterFunction _Z8spmv_jdsPfPKfPKiS3_S1_S3_i : hostFun 0x0x415376, fat_cubin_handle = 2
GPGPU-Sim PTX: __cudaRegisterFunction _Z16spmv_jds_texturePfPKfPKiS3_S1_S3_i : hostFun 0x0x4151bb, fat_cubin_handle = 2
GPGPU-Sim PTX: in __cudaRegisterTexture:
GPGPU-Sim PTX:   int dim = 1
GPGPU-Sim PTX:   int norm = 0
GPGPU-Sim PTX:   int ext = 0
GPGPU-Sim PTX:   Execution warning: Not finished implementing "void __cudaRegisterTexture(void**, const textureReference*, const void**, const char*, int, int, int)"
GPGPU-Sim PTX: __cudaRegisterVar: hostVar = 0x6d1640; deviceAddress = jds_ptr_int; deviceName = jds_ptr_int
GPGPU-Sim PTX: __cudaRegisterVar: Registering const memory space of 20000 bytes
GPGPU-Sim PTX registering constant jds_ptr_int (20000 bytes) to name mapping
GPGPU-Sim PTX: __cudaRegisterVar: hostVar = 0x6d6460; deviceAddress = sh_zcnt_int; deviceName = sh_zcnt_int
GPGPU-Sim PTX: __cudaRegisterVar: Registering const memory space of 20000 bytes
GPGPU-Sim PTX registering constant sh_zcnt_int (20000 bytes) to name mapping
GPGPU-Sim PTX: __cudaRegisterFatBinary found PTX versions for 'RAY/rayTracing.cu', capability = compute_20
GPGPU-Sim PTX: Loading PTX for RAY/rayTracing.cu, capability = compute_20
GPGPU-Sim PTX: allocating stack frame region for .param "__cudaretf__Z18intersectionSphere5Rayon6float3f" from 0x0 to 0x4
GPGPU-Sim PTX: allocating stack frame region for .param "__cudaparmf1__Z18intersectionSphere5Rayon6float3f" from 0x4 to 0x1c
GPGPU-Sim PTX: allocating stack frame region for .param "__cudaparmf2__Z18intersectionSphere5Rayon6float3f" from 0x1c to 0x28
GPGPU-Sim PTX: allocating stack frame region for .param "__cudaparmf3__Z18intersectionSphere5Rayon6float3f" from 0x28 to 0x2c
GPGPU-Sim PTX: allocating stack frame region for .param "__cudaretf__Z16intersectionPlan5Rayon6float3S0_" from 0x0 to 0x4
GPGPU-Sim PTX: allocating stack frame region for .param "__cudaparmf1__Z16intersectionPlan5Rayon6float3S0_" from 0x4 to 0x1c
GPGPU-Sim PTX: allocating stack frame region for .param "__cudaparmf2__Z16intersectionPlan5Rayon6float3S0_" from 0x1c to 0x28
GPGPU-Sim PTX: allocating stack frame region for .param "__cudaparmf3__Z16intersectionPlan5Rayon6float3S0_" from 0x28 to 0x34
GPGPU-Sim PTX: allocating stack frame region for .param "__cudaretf__Z10getNormale6float3S_" from 0x0 to 0xc
GPGPU-Sim PTX: allocating stack frame region for .param "__cudaparmf1__Z10getNormale6float3S_" from 0xc to 0x18
GPGPU-Sim PTX: allocating stack frame region for .param "__cudaparmf2__Z10getNormale6float3S_" from 0x18 to 0x24
GPGPU-Sim PTX: allocating stack frame region for .param "__cudaretf__Z11getNormaleP6float3" from 0x0 to 0xc
GPGPU-Sim PTX: allocating stack frame region for .param "__cudaparmf1__Z11getNormaleP6float3" from 0xc to 0x18
GPGPU-Sim PTX: allocating stack frame region for .param "__cudaretf__Z3mul10matrice3x46float3" from 0x0 to 0xc
GPGPU-Sim PTX: allocating stack frame region for .param "__cudaparmf1__Z3mul10matrice3x46float3" from 0xc to 0x3c
GPGPU-Sim PTX: allocating stack frame region for .param "__cudaparmf2__Z3mul10matrice3x46float3" from 0x3c to 0x48
GPGPU-Sim PTX: allocating stack frame region for .param "__cudaretf__Z3mul10matrice3x46float4" from 0x0 to 0x10
GPGPU-Sim PTX: allocating stack frame region for .param "__cudaparmf1__Z3mul10matrice3x46float4" from 0x10 to 0x40
GPGPU-Sim PTX: allocating stack frame region for .param "__cudaparmf2__Z3mul10matrice3x46float4" from 0x40 to 0x50
GPGPU-Sim PTX: allocating stack frame region for .param "__cudaretf__Z14rgbaFloatToInt6float4" from 0x0 to 0x4
GPGPU-Sim PTX: allocating stack frame region for .param "__cudaparmf1__Z14rgbaFloatToInt6float4" from 0x4 to 0x14
GPGPU-Sim PTX: allocating stack frame region for .param "__cudaretf__Z12notShadowRayP4Node6float3S1_f" from 0x0 to 0x4
GPGPU-Sim PTX: allocating stack frame region for .param "__cudaparmf1__Z12notShadowRayP4Node6float3S1_f" from 0x4 to 0xc
GPGPU-Sim PTX: allocating stack frame region for .param "__cudaparmf2__Z12notShadowRayP4Node6float3S1_f" from 0xc to 0x18
GPGPU-Sim PTX: allocating stack frame region for .param "__cudaparmf3__Z12notShadowRayP4Node6float3S1_f" from 0x18 to 0x24
GPGPU-Sim PTX: allocating stack frame region for .param "__cudaparmf4__Z12notShadowRayP4Node6float3S1_f" from 0x24 to 0x28
GPGPU-Sim PTX: allocating stack frame region for .param "__cudaretf__Z15float2int_pow20f" from 0x0 to 0x4
GPGPU-Sim PTX: allocating stack frame region for .param "__cudaparmf1__Z15float2int_pow20f" from 0x4 to 0x8
GPGPU-Sim PTX: allocating stack frame region for .param "__cudaretf__Z15float2int_pow50f" from 0x0 to 0x4
GPGPU-Sim PTX: allocating stack frame region for .param "__cudaparmf1__Z15float2int_pow50f" from 0x4 to 0x8
GPGPU-Sim PTX: instruction assembly for function '_Z18intersectionSphere5Rayon6float3f'...   done.
GPGPU-Sim PTX: finding reconvergence points for '_Z18intersectionSphere5Rayon6float3f'...
GPGPU-Sim PTX: Finding dominators for '_Z18intersectionSphere5Rayon6float3f'...
GPGPU-Sim PTX: Finding immediate dominators for '_Z18intersectionSphere5Rayon6float3f'...
GPGPU-Sim PTX: Finding postdominators for '_Z18intersectionSphere5Rayon6float3f'...
GPGPU-Sim PTX: Finding immediate postdominators for '_Z18intersectionSphere5Rayon6float3f'...
GPGPU-Sim PTX: pre-decoding instructions for '_Z18intersectionSphere5Rayon6float3f'...
GPGPU-Sim PTX: reconvergence points for _Z18intersectionSphere5Rayon6float3f...
GPGPU-Sim PTX:  1 (potential) branch divergence @  PC=0x1f40 (_3.ptx:114) @%p2 bra $Lt_0_3074;
GPGPU-Sim PTX:    immediate post dominator      @  PC=0x1fb0 (_3.ptx:134) mov.f32 %f39, %f32;
GPGPU-Sim PTX:  2 (potential) branch divergence @  PC=0x1f50 (_3.ptx:116) bra.uni $Lt_0_2818;
GPGPU-Sim PTX:    immediate post dominator      @  PC=0x1fb0 (_3.ptx:134) mov.f32 %f39, %f32;
GPGPU-Sim PTX:  3 (potential) branch divergence @  PC=0x1f70 (_3.ptx:121) @!%p3 bra $Lt_0_3586;
GPGPU-Sim PTX:    immediate post dominator      @  PC=0x1fb0 (_3.ptx:134) mov.f32 %f39, %f32;
GPGPU-Sim PTX:  4 (potential) branch divergence @  PC=0x1f80 (_3.ptx:123) bra.uni $Lt_0_3330;
GPGPU-Sim PTX:    immediate post dominator      @  PC=0x1fb0 (_3.ptx:134) mov.f32 %f39, %f32;
GPGPU-Sim PTX: ... end of reconvergence points for _Z18intersectionSphere5Rayon6float3f
GPGPU-Sim PTX: ... done pre-decoding instructions for '_Z18intersectionSphere5Rayon6float3f'.
GPGPU-Sim PTX: instruction assembly for function '_Z16intersectionPlan5Rayon6float3S0_'...   done.
GPGPU-Sim PTX: finding reconvergence points for '_Z16intersectionPlan5Rayon6float3S0_'...
GPGPU-Sim PTX: Finding dominators for '_Z16intersectionPlan5Rayon6float3S0_'...
GPGPU-Sim PTX: Finding immediate dominators for '_Z16intersectionPlan5Rayon6float3S0_'...
GPGPU-Sim PTX: Finding postdominators for '_Z16intersectionPlan5Rayon6float3S0_'...
GPGPU-Sim PTX: Finding immediate postdominators for '_Z16intersectionPlan5Rayon6float3S0_'...
GPGPU-Sim PTX: pre-decoding instructions for '_Z16intersectionPlan5Rayon6float3S0_'...
GPGPU-Sim PTX: reconvergence points for _Z16intersectionPlan5Rayon6float3S0_...
GPGPU-Sim PTX:  1 (potential) branch divergence @  PC=0x2010 (_3.ptx:155) @!%p1 bra $Lt_1_2050;
GPGPU-Sim PTX:    immediate post dominator      @  PC=0x2058 (_3.ptx:168) mov.f32 %f14, %f9;
GPGPU-Sim PTX:  2 (potential) branch divergence @  PC=0x2020 (_3.ptx:157) bra.uni $Lt_1_1794;
GPGPU-Sim PTX:    immediate post dominator      @  PC=0x2058 (_3.ptx:168) mov.f32 %f14, %f9;
GPGPU-Sim PTX: ... end of reconvergence points for _Z16intersectionPlan5Rayon6float3S0_
GPGPU-Sim PTX: ... done pre-decoding instructions for '_Z16intersectionPlan5Rayon6float3S0_'.
GPGPU-Sim PTX: instruction assembly for function '_Z10getNormale6float3S_'...   done.
GPGPU-Sim PTX: finding reconvergence points for '_Z10getNormale6float3S_'...
GPGPU-Sim PTX: Finding dominators for '_Z10getNormale6float3S_'...
GPGPU-Sim PTX: Finding immediate dominators for '_Z10getNormale6float3S_'...
GPGPU-Sim PTX: Finding postdominators for '_Z10getNormale6float3S_'...
GPGPU-Sim PTX: Finding immediate postdominators for '_Z10getNormale6float3S_'...
GPGPU-Sim PTX: pre-decoding instructions for '_Z10getNormale6float3S_'...
GPGPU-Sim PTX: reconvergence points for _Z10getNormale6float3S_...
GPGPU-Sim PTX: ... end of reconvergence points for _Z10getNormale6float3S_
GPGPU-Sim PTX: ... done pre-decoding instructions for '_Z10getNormale6float3S_'.
GPGPU-Sim PTX: instruction assembly for function '_Z11getNormaleP6float3'...   done.
GPGPU-Sim PTX: finding reconvergence points for '_Z11getNormaleP6float3'...
GPGPU-Sim PTX: Finding dominators for '_Z11getNormaleP6float3'...
GPGPU-Sim PTX: Finding immediate dominators for '_Z11getNormaleP6float3'...
GPGPU-Sim PTX: Finding postdominators for '_Z11getNormaleP6float3'...
GPGPU-Sim PTX: Finding immediate postdominators for '_Z11getNormaleP6float3'...
GPGPU-Sim PTX: pre-decoding instructions for '_Z11getNormaleP6float3'...
GPGPU-Sim PTX: reconvergence points for _Z11getNormaleP6float3...
GPGPU-Sim PTX: ... end of reconvergence points for _Z11getNormaleP6float3
GPGPU-Sim PTX: ... done pre-decoding instructions for '_Z11getNormaleP6float3'.
GPGPU-Sim PTX: instruction assembly for function '_Z3mul10matrice3x46float3'...   done.
GPGPU-Sim PTX: finding reconvergence points for '_Z3mul10matrice3x46float3'...
GPGPU-Sim PTX: Finding dominators for '_Z3mul10matrice3x46float3'...
GPGPU-Sim PTX: Finding immediate dominators for '_Z3mul10matrice3x46float3'...
GPGPU-Sim PTX: Finding postdominators for '_Z3mul10matrice3x46float3'...
GPGPU-Sim PTX: Finding immediate postdominators for '_Z3mul10matrice3x46float3'...
GPGPU-Sim PTX: pre-decoding instructions for '_Z3mul10matrice3x46float3'...
GPGPU-Sim PTX: reconvergence points for _Z3mul10matrice3x46float3...
GPGPU-Sim PTX: ... end of reconvergence points for _Z3mul10matrice3x46float3
GPGPU-Sim PTX: ... done pre-decoding instructions for '_Z3mul10matrice3x46float3'.
GPGPU-Sim PTX: instruction assembly for function '_Z3mul10matrice3x46float4'...   done.
GPGPU-Sim PTX: finding reconvergence points for '_Z3mul10matrice3x46float4'...
GPGPU-Sim PTX: Finding dominators for '_Z3mul10matrice3x46float4'...
GPGPU-Sim PTX: Finding immediate dominators for '_Z3mul10matrice3x46float4'...
GPGPU-Sim PTX: Finding postdominators for '_Z3mul10matrice3x46float4'...
GPGPU-Sim PTX: Finding immediate postdominators for '_Z3mul10matrice3x46float4'...
GPGPU-Sim PTX: pre-decoding instructions for '_Z3mul10matrice3x46float4'...
GPGPU-Sim PTX: reconvergence points for _Z3mul10matrice3x46float4...
GPGPU-Sim PTX: ... end of reconvergence points for _Z3mul10matrice3x46float4
GPGPU-Sim PTX: ... done pre-decoding instructions for '_Z3mul10matrice3x46float4'.
GPGPU-Sim PTX: instruction assembly for function '_Z14rgbaFloatToInt6float4'...   done.
GPGPU-Sim PTX: finding reconvergence points for '_Z14rgbaFloatToInt6float4'...
GPGPU-Sim PTX: Finding dominators for '_Z14rgbaFloatToInt6float4'...
GPGPU-Sim PTX: Finding immediate dominators for '_Z14rgbaFloatToInt6float4'...
GPGPU-Sim PTX: Finding postdominators for '_Z14rgbaFloatToInt6float4'...
GPGPU-Sim PTX: Finding immediate postdominators for '_Z14rgbaFloatToInt6float4'...
GPGPU-Sim PTX: pre-decoding instructions for '_Z14rgbaFloatToInt6float4'...
GPGPU-Sim PTX: reconvergence points for _Z14rgbaFloatToInt6float4...
GPGPU-Sim PTX: ... end of reconvergence points for _Z14rgbaFloatToInt6float4
GPGPU-Sim PTX: ... done pre-decoding instructions for '_Z14rgbaFloatToInt6float4'.
GPGPU-Sim PTX: allocating global region for "cnode" from 0x180 to 0x220 (global memory space)
GPGPU-Sim PTX: instruction assembly for function '_Z12notShadowRayP4Node6float3S1_f'...   done.
GPGPU-Sim PTX: finding reconvergence points for '_Z12notShadowRayP4Node6float3S1_f'...
GPGPU-Sim PTX: Finding dominators for '_Z12notShadowRayP4Node6float3S1_f'...
GPGPU-Sim PTX: Finding immediate dominators for '_Z12notShadowRayP4Node6float3S1_f'...
GPGPU-Sim PTX: Finding postdominators for '_Z12notShadowRayP4Node6float3S1_f'...
GPGPU-Sim PTX: Finding immediate postdominators for '_Z12notShadowRayP4Node6float3S1_f'...
GPGPU-Sim PTX: pre-decoding instructions for '_Z12notShadowRayP4Node6float3S1_f'...
GPGPU-Sim PTX: reconvergence points for _Z12notShadowRayP4Node6float3S1_f...
GPGPU-Sim PTX:  1 (potential) branch divergence @  PC=0x2688 (_3.ptx:432) @%p1 bra $Lt_7_8450;
GPGPU-Sim PTX:    immediate post dominator      @  PC=0x2878 (_3.ptx:520) mov.f32 %f58, 0f00000000;    // 0
GPGPU-Sim PTX:  2 (potential) branch divergence @  PC=0x26a8 (_3.ptx:438) @!%p2 bra $Lt_7_8962;
GPGPU-Sim PTX:    immediate post dominator      @  PC=0x2708 (_3.ptx:457) mov.f32 %f28, %f20;
GPGPU-Sim PTX:  3 (potential) branch divergence @  PC=0x26b8 (_3.ptx:441) bra.uni $Lt_7_8706;
GPGPU-Sim PTX:    immediate post dominator      @  PC=0x2708 (_3.ptx:457) mov.f32 %f28, %f20;
GPGPU-Sim PTX:  4 (potential) branch divergence @  PC=0x2710 (_3.ptx:458) bra.uni $Lt_7_8194;
GPGPU-Sim PTX:    immediate post dominator      @  PC=0x2878 (_3.ptx:520) mov.f32 %f58, 0f00000000;    // 0
GPGPU-Sim PTX:  5 (potential) branch divergence @  PC=0x2800 (_3.ptx:491) @%p5 bra $Lt_7_9474;
GPGPU-Sim PTX:    immediate post dominator      @  PC=0x2870 (_3.ptx:516) mov.f32 %f28, %f51;
GPGPU-Sim PTX:  6 (potential) branch divergence @  PC=0x2810 (_3.ptx:494) bra.uni $Lt_7_9730;
GPGPU-Sim PTX:    immediate post dominator      @  PC=0x2870 (_3.ptx:516) mov.f32 %f28, %f51;
GPGPU-Sim PTX:  7 (potential) branch divergence @  PC=0x2830 (_3.ptx:500) @!%p6 bra $Lt_7_9986;
GPGPU-Sim PTX:    immediate post dominator      @  PC=0x2870 (_3.ptx:516) mov.f32 %f28, %f51;
GPGPU-Sim PTX:  8 (potential) branch divergence @  PC=0x2840 (_3.ptx:503) bra.uni $Lt_7_9730;
GPGPU-Sim PTX:    immediate post dominator      @  PC=0x2870 (_3.ptx:516) mov.f32 %f28, %f51;
GPGPU-Sim PTX:  9 (potential) branch divergence @  PC=0x2888 (_3.ptx:522) @!%p7 bra $Lt_7_10242;
GPGPU-Sim PTX:    immediate post dominator      @  PC=0x2938 (_3.ptx:550) add.s32 %r1, %r1, 1;
GPGPU-Sim PTX: 10 (potential) branch divergence @  PC=0x2928 (_3.ptx:543) @!%p8 bra $Lt_7_10242;
GPGPU-Sim PTX:    immediate post dominator      @  PC=0x2938 (_3.ptx:550) add.s32 %r1, %r1, 1;
GPGPU-Sim PTX: 11 (potential) branch divergence @  PC=0x2958 (_3.ptx:554) @%p9 bra $Lt_7_10754;
GPGPU-Sim PTX:    immediate post dominator      @  PC=0x29b0 (_3.ptx:569) selp.s32 %r10, 1, 0, %p11;
GPGPU-Sim PTX: 12 (potential) branch divergence @  PC=0x2980 (_3.ptx:560) @%p10 bra $L_7_7170;
GPGPU-Sim PTX:    immediate post dominator      @  PC=0x29b0 (_3.ptx:569) selp.s32 %r10, 1, 0, %p11;
GPGPU-Sim PTX: 13 (potential) branch divergence @  PC=0x2988 (_3.ptx:561) bra.uni $L_7_7938;
GPGPU-Sim PTX:    immediate post dominator      @  PC=0x29b0 (_3.ptx:569) selp.s32 %r10, 1, 0, %p11;
GPGPU-Sim PTX: ... end of reconvergence points for _Z12notShadowRayP4Node6float3S1_f
GPGPU-Sim PTX: ... done pre-decoding instructions for '_Z12notShadowRayP4Node6float3S1_f'.
GPGPU-Sim PTX: instruction assembly for function '_Z15float2int_pow20f'...   done.
GPGPU-Sim PTX: finding reconvergence points for '_Z15float2int_pow20f'...
GPGPU-Sim PTX: Finding dominators for '_Z15float2int_pow20f'...
GPGPU-Sim PTX: Finding immediate dominators for '_Z15float2int_pow20f'...
GPGPU-Sim PTX: Finding postdominators for '_Z15float2int_pow20f'...
GPGPU-Sim PTX: Finding immediate postdominators for '_Z15float2int_pow20f'...
GPGPU-Sim PTX: pre-decoding instructions for '_Z15float2int_pow20f'...
GPGPU-Sim PTX: reconvergence points for _Z15float2int_pow20f...
GPGPU-Sim PTX: ... end of reconvergence points for _Z15float2int_pow20f
GPGPU-Sim PTX: ... done pre-decoding instructions for '_Z15float2int_pow20f'.
GPGPU-Sim PTX: instruction assembly for function '_Z15float2int_pow50f'...   done.
GPGPU-Sim PTX: finding reconvergence points for '_Z15float2int_pow50f'...
GPGPU-Sim PTX: Finding dominators for '_Z15float2int_pow50f'...
GPGPU-Sim PTX: Finding immediate dominators for '_Z15float2int_pow50f'...
GPGPU-Sim PTX: Finding postdominators for '_Z15float2int_pow50f'...
GPGPU-Sim PTX: Finding immediate postdominators for '_Z15float2int_pow50f'...
GPGPU-Sim PTX: pre-decoding instructions for '_Z15float2int_pow50f'...
GPGPU-Sim PTX: reconvergence points for _Z15float2int_pow50f...
GPGPU-Sim PTX: ... end of reconvergence points for _Z15float2int_pow50f
GPGPU-Sim PTX: ... done pre-decoding instructions for '_Z15float2int_pow50f'.
GPGPU-Sim PTX: allocating constant region for "MView" from 0x280 to 0x2b0 (global memory space) 4
GPGPU-Sim PTX: allocating stack frame region for .local "__cuda___cuda_local_var_40945_9_non_const_pile_32240" from 0x0 to 0x50
GPGPU-Sim PTX: instruction assembly for function '_Z6renderPjP4Nodejjff'...   done.
GPGPU-Sim PTX: finding reconvergence points for '_Z6renderPjP4Nodejjff'...
GPGPU-Sim PTX: Finding dominators for '_Z6renderPjP4Nodejjff'...
GPGPU-Sim PTX: Finding immediate dominators for '_Z6renderPjP4Nodejjff'...
GPGPU-Sim PTX: Finding postdominators for '_Z6renderPjP4Nodejjff'...
GPGPU-Sim PTX: Finding immediate postdominators for '_Z6renderPjP4Nodejjff'...
GPGPU-Sim PTX: pre-decoding instructions for '_Z6renderPjP4Nodejjff'...
GPGPU-Sim PTX: reconvergence points for _Z6renderPjP4Nodejjff...
GPGPU-Sim PTX:  1 (potential) branch divergence @  PC=0x2e00 (_3.ptx:746) @%p1 bra $Lt_10_44034;
GPGPU-Sim PTX:    immediate post dominator      @  PC=0x43c0 (_3.ptx:1652) exit;
GPGPU-Sim PTX:  2 (potential) branch divergence @  PC=0x3078 (_3.ptx:835) @%p2 bra $Lt_10_45570;
GPGPU-Sim PTX:    immediate post dominator      @  PC=0x3208 (_3.ptx:910) mov.f32 %f108, 0f00000000;   // 0
GPGPU-Sim PTX:  3 (potential) branch divergence @  PC=0x3098 (_3.ptx:841) @!%p3 bra $Lt_10_46082;
GPGPU-Sim PTX:    immediate post dominator      @  PC=0x30e0 (_3.ptx:857) mov.f32 %f87, %f82;
GPGPU-Sim PTX:  4 (potential) branch divergence @  PC=0x30a8 (_3.ptx:844) bra.uni $Lt_10_45826;
GPGPU-Sim PTX:    immediate post dominator      @  PC=0x30e0 (_3.ptx:857) mov.f32 %f87, %f82;
GPGPU-Sim PTX:  5 (potential) branch divergence @  PC=0x30e8 (_3.ptx:858) bra.uni $Lt_10_45314;
GPGPU-Sim PTX:    immediate post dominator      @  PC=0x3208 (_3.ptx:910) mov.f32 %f108, 0f00000000;   // 0
GPGPU-Sim PTX:  6 (potential) branch divergence @  PC=0x3190 (_3.ptx:882) @%p6 bra $Lt_10_46594;
GPGPU-Sim PTX:    immediate post dominator      @  PC=0x3200 (_3.ptx:907) mov.f32 %f87, %f101;
GPGPU-Sim PTX:  7 (potential) branch divergence @  PC=0x31a0 (_3.ptx:885) bra.uni $Lt_10_46850;
GPGPU-Sim PTX:    immediate post dominator      @  PC=0x3200 (_3.ptx:907) mov.f32 %f87, %f101;
GPGPU-Sim PTX:  8 (potential) branch divergence @  PC=0x31c0 (_3.ptx:891) @!%p7 bra $Lt_10_47106;
GPGPU-Sim PTX:    immediate post dominator      @  PC=0x3200 (_3.ptx:907) mov.f32 %f87, %f101;
GPGPU-Sim PTX:  9 (potential) branch divergence @  PC=0x31d0 (_3.ptx:894) bra.uni $Lt_10_46850;
GPGPU-Sim PTX:    immediate post dominator      @  PC=0x3200 (_3.ptx:907) mov.f32 %f87, %f101;
GPGPU-Sim PTX: 10 (potential) branch divergence @  PC=0x3248 (_3.ptx:918) @%p8 bra $Lt_10_47362;
GPGPU-Sim PTX:    immediate post dominator      @  PC=0x3260 (_3.ptx:926) add.s32 %r25, %r25, 1;
GPGPU-Sim PTX: 11 (potential) branch divergence @  PC=0x3280 (_3.ptx:930) @%p9 bra $Lt_10_45058;
GPGPU-Sim PTX:    immediate post dominator      @  PC=0x3288 (_3.ptx:932) mov.f32 %f109, 0f00000000;   // 0
GPGPU-Sim PTX: 12 (potential) branch divergence @  PC=0x32d0 (_3.ptx:941) @%p10 bra $Lt_10_48130;
GPGPU-Sim PTX:    immediate post dominator      @  PC=0x4190 (_3.ptx:1572) add.s32 %r23, %r23, 1;
GPGPU-Sim PTX: 13 (potential) branch divergence @  PC=0x3380 (_3.ptx:967) @%p11 bra $Lt_10_48898;
GPGPU-Sim PTX:    immediate post dominator      @  PC=0x3408 (_3.ptx:990) sub.f32 %f136, %f21, %f119;
GPGPU-Sim PTX: 14 (potential) branch divergence @  PC=0x33a0 (_3.ptx:973) bra.uni $Lt_10_48642;
GPGPU-Sim PTX:    immediate post dominator      @  PC=0x3408 (_3.ptx:990) sub.f32 %f136, %f21, %f119;
GPGPU-Sim PTX: 15 (potential) branch divergence @  PC=0x3480 (_3.ptx:1005) @!%p12 bra $Lt_10_49410;
GPGPU-Sim PTX:    immediate post dominator      @  PC=0x34c0 (_3.ptx:1020) mov.f32 %f153, 0f3d4ccccd;   // 0.05
GPGPU-Sim PTX: 16 (potential) branch divergence @  PC=0x34a0 (_3.ptx:1011) bra.uni $Lt_10_49154;
GPGPU-Sim PTX:    immediate post dominator      @  PC=0x34c0 (_3.ptx:1020) mov.f32 %f153, 0f3d4ccccd;   // 0.05
GPGPU-Sim PTX: 17 (potential) branch divergence @  PC=0x35c8 (_3.ptx:1054) @!%p13 bra $Lt_10_58114;
GPGPU-Sim PTX:    immediate post dominator      @  PC=0x40d0 (_3.ptx:1543) add.f32 %f399, %f126, %f126;
GPGPU-Sim PTX: 18 (potential) branch divergence @  PC=0x3610 (_3.ptx:1068) @%p14 bra $Lt_10_49922;
GPGPU-Sim PTX:    immediate post dominator      @  PC=0x3800 (_3.ptx:1157) mov.f32 %f221, 0f00000000;   // 0
GPGPU-Sim PTX: 19 (potential) branch divergence @  PC=0x3630 (_3.ptx:1074) @!%p15 bra $Lt_10_50434;
GPGPU-Sim PTX:    immediate post dominator      @  PC=0x3688 (_3.ptx:1093) mov.f32 %f190, %f183;
GPGPU-Sim PTX: 20 (potential) branch divergence @  PC=0x3640 (_3.ptx:1077) bra.uni $Lt_10_50178;
GPGPU-Sim PTX:    immediate post dominator      @  PC=0x3688 (_3.ptx:1093) mov.f32 %f190, %f183;
GPGPU-Sim PTX: 21 (potential) branch divergence @  PC=0x3690 (_3.ptx:1094) bra.uni $Lt_10_49666;
GPGPU-Sim PTX:    immediate post dominator      @  PC=0x3800 (_3.ptx:1157) mov.f32 %f221, 0f00000000;   // 0
GPGPU-Sim PTX: 22 (potential) branch divergence @  PC=0x3788 (_3.ptx:1128) @%p18 bra $Lt_10_50946;
GPGPU-Sim PTX:    immediate post dominator      @  PC=0x37f8 (_3.ptx:1153) mov.f32 %f190, %f214;
GPGPU-Sim PTX: 23 (potential) branch divergence @  PC=0x3798 (_3.ptx:1131) bra.uni $Lt_10_51202;
GPGPU-Sim PTX:    immediate post dominator      @  PC=0x37f8 (_3.ptx:1153) mov.f32 %f190, %f214;
GPGPU-Sim PTX: 24 (potential) branch divergence @  PC=0x37b8 (_3.ptx:1137) @!%p19 bra $Lt_10_51458;
GPGPU-Sim PTX:    immediate post dominator      @  PC=0x37f8 (_3.ptx:1153) mov.f32 %f190, %f214;
GPGPU-Sim PTX: 25 (potential) branch divergence @  PC=0x37c8 (_3.ptx:1140) bra.uni $Lt_10_51202;
GPGPU-Sim PTX:    immediate post dominator      @  PC=0x37f8 (_3.ptx:1153) mov.f32 %f190, %f214;
GPGPU-Sim PTX: 26 (potential) branch divergence @  PC=0x3810 (_3.ptx:1159) @!%p20 bra $Lt_10_58370;
GPGPU-Sim PTX:    immediate post dominator      @  PC=0x3878 (_3.ptx:1178) add.s32 %r50, %r50, 1;
GPGPU-Sim PTX: 27 (potential) branch divergence @  PC=0x3868 (_3.ptx:1171) @!%p21 bra $Lt_10_58370;
GPGPU-Sim PTX:    immediate post dominator      @  PC=0x3878 (_3.ptx:1178) add.s32 %r50, %r50, 1;
GPGPU-Sim PTX: 28 (potential) branch divergence @  PC=0x3898 (_3.ptx:1182) @%p22 bra $Lt_10_58882;
GPGPU-Sim PTX:    immediate post dominator      @  PC=0x38d0 (_3.ptx:1196) @!%p23 bra $Lt_10_58114;
GPGPU-Sim PTX: 29 (potential) branch divergence @  PC=0x38b0 (_3.ptx:1186) @%p23 bra $L_10_42498;
GPGPU-Sim PTX:    immediate post dominator      @  PC=0x38d0 (_3.ptx:1196) @!%p23 bra $Lt_10_58114;
GPGPU-Sim PTX: 30 (potential) branch divergence @  PC=0x38b8 (_3.ptx:1188) bra.uni $L_10_43266;
GPGPU-Sim PTX:    immediate post dominator      @  PC=0x38d0 (_3.ptx:1196) @!%p23 bra $Lt_10_58114;
GPGPU-Sim PTX: 31 (potential) branch divergence @  PC=0x38d0 (_3.ptx:1196) @!%p23 bra $Lt_10_58114;
GPGPU-Sim PTX:    immediate post dominator      @  PC=0x40d0 (_3.ptx:1543) add.f32 %f399, %f126, %f126;
GPGPU-Sim PTX: 32 (potential) branch divergence @  PC=0x3a18 (_3.ptx:1241) @!%p24 bra $Lt_10_51714;
GPGPU-Sim PTX:    immediate post dominator      @  PC=0x4090 (_3.ptx:1529) mov.f32 %f394, 0f3f4ccccd;   // 0.8
GPGPU-Sim PTX: 33 (potential) branch divergence @  PC=0x3a28 (_3.ptx:1245) bra.uni $LDWendi___isnanf_187_1;
GPGPU-Sim PTX:    immediate post dominator      @  PC=0x4090 (_3.ptx:1529) mov.f32 %f394, 0f3f4ccccd;   // 0.8
GPGPU-Sim PTX: 34 (potential) branch divergence @  PC=0x3a48 (_3.ptx:1252) @!%p25 bra $Lt_10_7682;
GPGPU-Sim PTX:    immediate post dominator      @  PC=0x4090 (_3.ptx:1529) mov.f32 %f394, 0f3f4ccccd;   // 0.8
GPGPU-Sim PTX: 35 (potential) branch divergence @  PC=0x3a50 (_3.ptx:1254) bra.uni $Lt_10_7938;
GPGPU-Sim PTX:    immediate post dominator      @  PC=0x3a70 (_3.ptx:1264) mov.f32 %f272, 0f7f800000;   // ((1.0F)/(0.0F))
GPGPU-Sim PTX: 36 (potential) branch divergence @  PC=0x3a68 (_3.ptx:1260) bra.uni $LDWendi___isnanf_187_1;
GPGPU-Sim PTX:    immediate post dominator      @  PC=0x4090 (_3.ptx:1529) mov.f32 %f394, 0f3f4ccccd;   // 0.8
GPGPU-Sim PTX: 37 (potential) branch divergence @  PC=0x3a80 (_3.ptx:1266) @!%p26 bra $Lt_10_52226;
GPGPU-Sim PTX:    immediate post dominator      @  PC=0x4090 (_3.ptx:1529) mov.f32 %f394, 0f3f4ccccd;   // 0.8
GPGPU-Sim PTX: 38 (potential) branch divergence @  PC=0x3a90 (_3.ptx:1270) bra.uni $LDWendi___isnanf_187_1;
GPGPU-Sim PTX:    immediate post dominator      @  PC=0x4090 (_3.ptx:1529) mov.f32 %f394, 0f3f4ccccd;   // 0.8
GPGPU-Sim PTX: 39 (potential) branch divergence @  PC=0x3aa8 (_3.ptx:1275) @!%p27 bra $Lt_10_52738;
GPGPU-Sim PTX:    immediate post dominator      @  PC=0x4090 (_3.ptx:1529) mov.f32 %f394, 0f3f4ccccd;   // 0.8
GPGPU-Sim PTX: 40 (potential) branch divergence @  PC=0x3b08 (_3.ptx:1289) bra.uni $LDWendi___isnanf_187_1;
GPGPU-Sim PTX:    immediate post dominator      @  PC=0x4090 (_3.ptx:1529) mov.f32 %f394, 0f3f4ccccd;   // 0.8
GPGPU-Sim PTX: 41 (potential) branch divergence @  PC=0x3b20 (_3.ptx:1294) @!%p29 bra $Lt_10_53250;
GPGPU-Sim PTX:    immediate post dominator      @  PC=0x4090 (_3.ptx:1529) mov.f32 %f394, 0f3f4ccccd;   // 0.8
GPGPU-Sim PTX: 42 (potential) branch divergence @  PC=0x3b70 (_3.ptx:1306) @!%p30 bra $Lt_10_53762;
GPGPU-Sim PTX:    immediate post dominator      @  PC=0x3b90 (_3.ptx:1315) mov.f32 %f268, %f284;
GPGPU-Sim PTX: 43 (potential) branch divergence @  PC=0x3b98 (_3.ptx:1316) bra.uni $LDWendi___isnanf_187_1;
GPGPU-Sim PTX:    immediate post dominator      @  PC=0x4090 (_3.ptx:1529) mov.f32 %f394, 0f3f4ccccd;   // 0.8
GPGPU-Sim PTX: 44 (potential) branch divergence @  PC=0x3bb0 (_3.ptx:1322) @!%p31 bra $Lt_10_59394;
GPGPU-Sim PTX:    immediate post dominator      @  PC=0x4090 (_3.ptx:1529) mov.f32 %f394, 0f3f4ccccd;   // 0.8
GPGPU-Sim PTX: 45 (potential) branch divergence @  PC=0x3bd8 (_3.ptx:1328) @!%p32 bra $Lt_10_59394;
GPGPU-Sim PTX:    immediate post dominator      @  PC=0x4090 (_3.ptx:1529) mov.f32 %f394, 0f3f4ccccd;   // 0.8
GPGPU-Sim PTX: 46 (potential) branch divergence @  PC=0x3bf0 (_3.ptx:1333) bra.uni $LDWendi___isnanf_187_1;
GPGPU-Sim PTX:    immediate post dominator      @  PC=0x4090 (_3.ptx:1529) mov.f32 %f394, 0f3f4ccccd;   // 0.8
GPGPU-Sim PTX: 47 (potential) branch divergence @  PC=0x3c28 (_3.ptx:1344) @%p33 bra $Lt_10_54530;
GPGPU-Sim PTX:    immediate post dominator      @  PC=0x3c70 (_3.ptx:1361) sub.s32 %r64, %r64, 127;
GPGPU-Sim PTX: 48 (potential) branch divergence @  PC=0x3c60 (_3.ptx:1354) bra.uni $Lt_10_54274;
GPGPU-Sim PTX:    immediate post dominator      @  PC=0x3c70 (_3.ptx:1361) sub.s32 %r64, %r64, 127;
GPGPU-Sim PTX: 49 (potential) branch divergence @  PC=0x3ca8 (_3.ptx:1369) @!%p34 bra $Lt_10_54786;
GPGPU-Sim PTX:    immediate post dominator      @  PC=0x3cc8 (_3.ptx:1379) mov.f32 %f302, 0fbf800000;   // -1
GPGPU-Sim PTX: 50 (potential) branch divergence @  PC=0x3f00 (_3.ptx:1459) @%p35 bra $Lt_10_55298;
GPGPU-Sim PTX:    immediate post dominator      @  PC=0x3f28 (_3.ptx:1470) mov.f32 %f367, %f365;
GPGPU-Sim PTX: 51 (potential) branch divergence @  PC=0x3fe8 (_3.ptx:1495) @!%p38 bra $Lt_10_55810;
GPGPU-Sim PTX:    immediate post dominator      @  PC=0x3ff8 (_3.ptx:1502) mov.f32 %f284, %f386;
GPGPU-Sim PTX: 52 (potential) branch divergence @  PC=0x4068 (_3.ptx:1516) @%p39 bra $Lt_10_56322;
GPGPU-Sim PTX:    immediate post dominator      @  PC=0x4088 (_3.ptx:1525) mov.f32 %f268, %f284;
GPGPU-Sim PTX: 53 (potential) branch divergence @  PC=0x41a8 (_3.ptx:1575) @%p40 bra $L_10_42242;
GPGPU-Sim PTX:    immediate post dominator      @  PC=0x41c0 (_3.ptx:1581) sub.s32 %r86, %r24, 1;
GPGPU-Sim PTX: 54 (potential) branch divergence @  PC=0x41b8 (_3.ptx:1578) @%p41 bra $L_10_41474;
GPGPU-Sim PTX:    immediate post dominator      @  PC=0x41c0 (_3.ptx:1581) sub.s32 %r86, %r24, 1;
GPGPU-Sim PTX: 55 (potential) branch divergence @  PC=0x41e0 (_3.ptx:1585) @%p42 bra $Lt_10_56834;
GPGPU-Sim PTX:    immediate post dominator      @  PC=0x42d8 (_3.ptx:1621) ld.global.u32 %r92, [%rd4+0];
GPGPU-Sim PTX: 56 (potential) branch divergence @  PC=0x42d0 (_3.ptx:1618) @%p43 bra $Lt_10_57346;
GPGPU-Sim PTX:    immediate post dominator      @  PC=0x42d8 (_3.ptx:1621) ld.global.u32 %r92, [%rd4+0];
GPGPU-Sim PTX: ... end of reconvergence points for _Z6renderPjP4Nodejjff
GPGPU-Sim PTX: ... done pre-decoding instructions for '_Z6renderPjP4Nodejjff'.
GPGPU-Sim PTX: finished parsing EMBEDDED .ptx file _3.ptx
GPGPU-Sim PTX: extracting embedded .ptx to temporary file "_ptx_b2xyPe"
Running: cat _ptx_b2xyPe | sed 's/.version 1.5/.version 1.4/' | sed 's/, texmode_independent//' | sed 's/\(\.extern \.const\[1\] .b8 \w\+\)\[\]/\1\[1\]/' | sed 's/const\[.\]/const\[0\]/g' > _ptx2_tuBQir
GPGPU-Sim PTX: generating ptxinfo using "$CUDA_INSTALL_PATH/bin/ptxas --gpu-name=sm_20 -v _ptx2_tuBQir --output-file  /dev/null 2> _ptx_b2xyPeinfo"
GPGPU-Sim PTX: Kernel '_Z6renderPjP4Nodejjff' : regs=63, lmem=4, smem=0, cmem=168
GPGPU-Sim PTX: removing ptxinfo using "rm -f _ptx_b2xyPe _ptx2_tuBQir _ptx_b2xyPeinfo"
GPGPU-Sim PTX: loading globals with explicit initializers... 
GPGPU-Sim PTX: finished loading globals (0 bytes total).
GPGPU-Sim PTX: loading constants with explicit initializers...  done.
GPGPU-Sim PTX: __cudaRegisterFunction _Z6renderPjP4Nodejjff : hostFun 0x0x4186a6, fat_cubin_handle = 3
GPGPU-Sim PTX: __cudaRegisterVar: hostVar = 0x6db560; deviceAddress = MView; deviceName = MView
GPGPU-Sim PTX: __cudaRegisterVar: Registering const memory space of 48 bytes
GPGPU-Sim PTX registering constant MView (48 bytes) to name mapping
GPGPU-Sim PTX: __cudaRegisterVar: hostVar = 0x6db5a0; deviceAddress = cnode; deviceName = cnode
GPGPU-Sim PTX: __cudaRegisterVar: Registering const memory space of 160 bytes
GPGPU-Sim PTX registering constant cnode (160 bytes) to name mapping
GPGPU-Sim PTX: __cudaRegisterFatBinary found PTX versions for 'BP/backprop_cuda.cu', capability = compute_20
GPGPU-Sim PTX: Loading PTX for BP/backprop_cuda.cu, capability = compute_20
GPGPU-Sim PTX: allocating shared region for "__cuda___cuda_local_var_34825_34_non_const_input_node40" from 0x0 to 0x40 (shared memory space)
GPGPU-Sim PTX: allocating shared region for "__cuda___cuda_local_var_34826_34_non_const_weight_matrix104" from 0x80 to 0x480 (shared memory space)
GPGPU-Sim PTX: instruction assembly for function '_Z22bpnn_layerforward_CUDAPfS_S_S_ii'...   done.
GPGPU-Sim PTX: finding reconvergence points for '_Z22bpnn_layerforward_CUDAPfS_S_S_ii'...
GPGPU-Sim PTX: Finding dominators for '_Z22bpnn_layerforward_CUDAPfS_S_S_ii'...
GPGPU-Sim PTX: Finding immediate dominators for '_Z22bpnn_layerforward_CUDAPfS_S_S_ii'...
GPGPU-Sim PTX: Finding postdominators for '_Z22bpnn_layerforward_CUDAPfS_S_S_ii'...
GPGPU-Sim PTX: Finding immediate postdominators for '_Z22bpnn_layerforward_CUDAPfS_S_S_ii'...
GPGPU-Sim PTX: pre-decoding instructions for '_Z22bpnn_layerforward_CUDAPfS_S_S_ii'...
GPGPU-Sim PTX: reconvergence points for _Z22bpnn_layerforward_CUDAPfS_S_S_ii...
GPGPU-Sim PTX:  1 (potential) branch divergence @  PC=0x4410 (_4.ptx:74) @!%p1 bra $Lt_0_3586;
GPGPU-Sim PTX:    immediate post dominator      @  PC=0x4458 (_4.ptx:86) bar.sync 0;
GPGPU-Sim PTX:  2 (potential) branch divergence @  PC=0x4558 (_4.ptx:123) @!%p2 bra $Lt_0_4098;
GPGPU-Sim PTX:    immediate post dominator      @  PC=0x4658 (_4.ptx:166) ld.shared.f32 %f17, [%rd14+0];
GPGPU-Sim PTX:  3 (potential) branch divergence @  PC=0x45b0 (_4.ptx:137) @%p3 bra $Lt_0_4866;
GPGPU-Sim PTX:    immediate post dominator      @  PC=0x4630 (_4.ptx:158) bar.sync 0;
GPGPU-Sim PTX:  4 (potential) branch divergence @  PC=0x4650 (_4.ptx:163) @%p4 bra $Lt_0_4610;
GPGPU-Sim PTX:    immediate post dominator      @  PC=0x4658 (_4.ptx:166) ld.shared.f32 %f17, [%rd14+0];
GPGPU-Sim PTX:  5 (potential) branch divergence @  PC=0x4670 (_4.ptx:170) @!%p1 bra $Lt_0_5634;
GPGPU-Sim PTX:    immediate post dominator      @  PC=0x46d8 (_4.ptx:186) exit;
GPGPU-Sim PTX: ... end of reconvergence points for _Z22bpnn_layerforward_CUDAPfS_S_S_ii
GPGPU-Sim PTX: ... done pre-decoding instructions for '_Z22bpnn_layerforward_CUDAPfS_S_S_ii'.
GPGPU-Sim PTX: instruction assembly for function '_Z24bpnn_adjust_weights_cudaPfiS_iS_S_'...   done.
GPGPU-Sim PTX: finding reconvergence points for '_Z24bpnn_adjust_weights_cudaPfiS_iS_S_'...
GPGPU-Sim PTX: Finding dominators for '_Z24bpnn_adjust_weights_cudaPfiS_iS_S_'...
GPGPU-Sim PTX: Finding immediate dominators for '_Z24bpnn_adjust_weights_cudaPfiS_iS_S_'...
GPGPU-Sim PTX: Finding postdominators for '_Z24bpnn_adjust_weights_cudaPfiS_iS_S_'...
GPGPU-Sim PTX: Finding immediate postdominators for '_Z24bpnn_adjust_weights_cudaPfiS_iS_S_'...
GPGPU-Sim PTX: pre-decoding instructions for '_Z24bpnn_adjust_weights_cudaPfiS_iS_S_'...
GPGPU-Sim PTX: reconvergence points for _Z24bpnn_adjust_weights_cudaPfiS_iS_S_...
GPGPU-Sim PTX:  1 (potential) branch divergence @  PC=0x48f8 (_4.ptx:275) @%p1 bra $Lt_1_1282;
GPGPU-Sim PTX:    immediate post dominator      @  PC=0x49c8 (_4.ptx:305) exit;
GPGPU-Sim PTX: ... end of reconvergence points for _Z24bpnn_adjust_weights_cudaPfiS_iS_S_
GPGPU-Sim PTX: ... done pre-decoding instructions for '_Z24bpnn_adjust_weights_cudaPfiS_iS_S_'.
GPGPU-Sim PTX: finished parsing EMBEDDED .ptx file _4.ptx
GPGPU-Sim PTX: extracting embedded .ptx to temporary file "_ptx_9Ruu2D"
Running: cat _ptx_9Ruu2D | sed 's/.version 1.5/.version 1.4/' | sed 's/, texmode_independent//' | sed 's/\(\.extern \.const\[1\] .b8 \w\+\)\[\]/\1\[1\]/' | sed 's/const\[.\]/const\[0\]/g' > _ptx2_B4H9LQ
GPGPU-Sim PTX: generating ptxinfo using "$CUDA_INSTALL_PATH/bin/ptxas --gpu-name=sm_20 -v _ptx2_B4H9LQ --output-file  /dev/null 2> _ptx_9Ruu2Dinfo"
GPGPU-Sim PTX: Kernel '_Z24bpnn_adjust_weights_cudaPfiS_iS_S_' : regs=22, lmem=0, smem=0, cmem=84
GPGPU-Sim PTX: Kernel '_Z22bpnn_layerforward_CUDAPfS_S_S_ii' : regs=13, lmem=0, smem=1088, cmem=72
GPGPU-Sim PTX: removing ptxinfo using "rm -f _ptx_9Ruu2D _ptx2_B4H9LQ _ptx_9Ruu2Dinfo"
GPGPU-Sim PTX: loading globals with explicit initializers... 
GPGPU-Sim PTX: finished loading globals (0 bytes total).
GPGPU-Sim PTX: loading constants with explicit initializers...  done.
GPGPU-Sim PTX: __cudaRegisterFunction _Z24bpnn_adjust_weights_cudaPfiS_iS_S_ : hostFun 0x0x41ac6e, fat_cubin_handle = 4
GPGPU-Sim PTX: __cudaRegisterFunction _Z22bpnn_layerforward_CUDAPfS_S_S_ii : hostFun 0x0x41aae6, fat_cubin_handle = 4
GPGPU-Sim PTX: __cudaRegisterFatBinary found PTX versions for 'SAD/main_sad.cu', capability = compute_20
GPGPU-Sim PTX: Loading PTX for SAD/main_sad.cu, capability = compute_20
GPGPU-Sim PTX: allocating shared region for "sad_loc" from 0x0 to 0x0 (shared memory space)
GPGPU-Sim PTX: allocating shared region for "sad_loc_8b" from 0x0 to 0x0 (shared memory space)
GPGPU-Sim PTX: allocating shared region for "frame_loc" from 0x0 to 0x20 (shared memory space)
GPGPU-Sim PTX: allocating global region for "ref" from 0x118 to 0x11c (global memory space)
GPGPU-Sim PTX: instruction assembly for function '_Z11mb_sad_calcPtS_ii'...   done.
GPGPU-Sim PTX: finding reconvergence points for '_Z11mb_sad_calcPtS_ii'...
GPGPU-Sim PTX: Finding dominators for '_Z11mb_sad_calcPtS_ii'...
GPGPU-Sim PTX: Finding immediate dominators for '_Z11mb_sad_calcPtS_ii'...
GPGPU-Sim PTX: Finding postdominators for '_Z11mb_sad_calcPtS_ii'...
GPGPU-Sim PTX: Finding immediate postdominators for '_Z11mb_sad_calcPtS_ii'...
GPGPU-Sim PTX: pre-decoding instructions for '_Z11mb_sad_calcPtS_ii'...
GPGPU-Sim PTX: reconvergence points for _Z11mb_sad_calcPtS_ii...
GPGPU-Sim PTX:  1 (potential) branch divergence @  PC=0x4a10 (_5.ptx:75) @%p1 bra $Lt_0_9730;
GPGPU-Sim PTX:    immediate post dominator      @  PC=0x4bc0 (_5.ptx:134) bar.sync 0;
GPGPU-Sim PTX:  2 (potential) branch divergence @  PC=0x4ab8 (_5.ptx:96) @%p2 bra $Lt_0_9986;
GPGPU-Sim PTX:    immediate post dominator      @  PC=0x4b88 (_5.ptx:124) mov.u64 %rd1, frame_loc;
GPGPU-Sim PTX:  3 (potential) branch divergence @  PC=0x4b90 (_5.ptx:125) bra.uni $Lt_0_9474;
GPGPU-Sim PTX:    immediate post dominator      @  PC=0x4bc0 (_5.ptx:134) bar.sync 0;
GPGPU-Sim PTX:  4 (potential) branch divergence @  PC=0x4c50 (_5.ptx:152) @%p3 bra $Lt_0_10498;
GPGPU-Sim PTX:    immediate post dominator      @  PC=0x5238 (_5.ptx:384) bar.sync 0;
GPGPU-Sim PTX:  5 (potential) branch divergence @  PC=0x4d40 (_5.ptx:184) @%p6 bra $Lt_0_11010;
GPGPU-Sim PTX:    immediate post dominator      @  PC=0x5238 (_5.ptx:384) bar.sync 0;
GPGPU-Sim PTX:  6 (potential) branch divergence @  PC=0x51b8 (_5.ptx:355) @%p8 bra $Lt_0_12290;
GPGPU-Sim PTX:    immediate post dominator      @  PC=0x51c0 (_5.ptx:358) cvt.u64.u32 %rd13, %r96;
GPGPU-Sim PTX:  7 (potential) branch divergence @  PC=0x5208 (_5.ptx:370) @%p9 bra $Lt_0_12802;
GPGPU-Sim PTX:    immediate post dominator      @  PC=0x5220 (_5.ptx:378) add.u32 %r96, %r96, 3;
GPGPU-Sim PTX:  8 (potential) branch divergence @  PC=0x5230 (_5.ptx:380) @%p10 bra $Lt_0_11522;
GPGPU-Sim PTX:    immediate post dominator      @  PC=0x5238 (_5.ptx:384) bar.sync 0;
GPGPU-Sim PTX:  9 (potential) branch divergence @  PC=0x5258 (_5.ptx:388) @%p11 bra $Lt_0_13570;
GPGPU-Sim PTX:    immediate post dominator      @  PC=0x5440 (_5.ptx:457) exit;
GPGPU-Sim PTX: 10 (potential) branch divergence @  PC=0x52d0 (_5.ptx:403) @%p12 bra $Lt_0_14082;
GPGPU-Sim PTX:    immediate post dominator      @  PC=0x5440 (_5.ptx:457) exit;
GPGPU-Sim PTX: 11 (potential) branch divergence @  PC=0x52f0 (_5.ptx:408) @%p13 bra $Lt_0_14594;
GPGPU-Sim PTX:    immediate post dominator      @  PC=0x5440 (_5.ptx:457) exit;
GPGPU-Sim PTX: 12 (potential) branch divergence @  PC=0x5438 (_5.ptx:452) @%p14 bra $Lt_0_15106;
GPGPU-Sim PTX:    immediate post dominator      @  PC=0x5440 (_5.ptx:457) exit;
GPGPU-Sim PTX: ... end of reconvergence points for _Z11mb_sad_calcPtS_ii
GPGPU-Sim PTX: ... done pre-decoding instructions for '_Z11mb_sad_calcPtS_ii'.
GPGPU-Sim PTX: instruction assembly for function '_Z17larger_sad_calc_8Ptii'...   done.
GPGPU-Sim PTX: finding reconvergence points for '_Z17larger_sad_calc_8Ptii'...
GPGPU-Sim PTX: Finding dominators for '_Z17larger_sad_calc_8Ptii'...
GPGPU-Sim PTX: Finding immediate dominators for '_Z17larger_sad_calc_8Ptii'...
GPGPU-Sim PTX: Finding postdominators for '_Z17larger_sad_calc_8Ptii'...
GPGPU-Sim PTX: Finding immediate postdominators for '_Z17larger_sad_calc_8Ptii'...
GPGPU-Sim PTX: pre-decoding instructions for '_Z17larger_sad_calc_8Ptii'...
GPGPU-Sim PTX: reconvergence points for _Z17larger_sad_calc_8Ptii...
GPGPU-Sim PTX:  1 (potential) branch divergence @  PC=0x5468 (_5.ptx:477) @%p1 bra $Lt_1_2050;
GPGPU-Sim PTX:    immediate post dominator      @  PC=0x5588 (_5.ptx:517) cvt.s32.u32 %r26, %tid.x;
GPGPU-Sim PTX:  2 (potential) branch divergence @  PC=0x55a8 (_5.ptx:521) @%p2 bra $Lt_1_2562;
GPGPU-Sim PTX:    immediate post dominator      @  PC=0x57f8 (_5.ptx:608) exit;
GPGPU-Sim PTX:  3 (potential) branch divergence @  PC=0x57f0 (_5.ptx:605) @%p3 bra $Lt_1_3074;
GPGPU-Sim PTX:    immediate post dominator      @  PC=0x57f8 (_5.ptx:608) exit;
GPGPU-Sim PTX: ... end of reconvergence points for _Z17larger_sad_calc_8Ptii
GPGPU-Sim PTX: ... done pre-decoding instructions for '_Z17larger_sad_calc_8Ptii'.
GPGPU-Sim PTX: instruction assembly for function '_Z18larger_sad_calc_16Ptii'...   done.
GPGPU-Sim PTX: finding reconvergence points for '_Z18larger_sad_calc_16Ptii'...
GPGPU-Sim PTX: Finding dominators for '_Z18larger_sad_calc_16Ptii'...
GPGPU-Sim PTX: Finding immediate dominators for '_Z18larger_sad_calc_16Ptii'...
GPGPU-Sim PTX: Finding postdominators for '_Z18larger_sad_calc_16Ptii'...
GPGPU-Sim PTX: Finding immediate postdominators for '_Z18larger_sad_calc_16Ptii'...
GPGPU-Sim PTX: pre-decoding instructions for '_Z18larger_sad_calc_16Ptii'...
GPGPU-Sim PTX: reconvergence points for _Z18larger_sad_calc_16Ptii...
GPGPU-Sim PTX:  1 (potential) branch divergence @  PC=0x5820 (_5.ptx:627) @%p1 bra $Lt_2_1282;
GPGPU-Sim PTX:    immediate post dominator      @  PC=0x5a40 (_5.ptx:708) exit;
GPGPU-Sim PTX:  2 (potential) branch divergence @  PC=0x5a38 (_5.ptx:705) @%p2 bra $Lt_2_1794;
GPGPU-Sim PTX:    immediate post dominator      @  PC=0x5a40 (_5.ptx:708) exit;
GPGPU-Sim PTX: ... end of reconvergence points for _Z18larger_sad_calc_16Ptii
GPGPU-Sim PTX: ... done pre-decoding instructions for '_Z18larger_sad_calc_16Ptii'.
GPGPU-Sim PTX: finished parsing EMBEDDED .ptx file _5.ptx
GPGPU-Sim PTX: extracting embedded .ptx to temporary file "_ptx_sA9WA3"
Running: cat _ptx_sA9WA3 | sed 's/.version 1.5/.version 1.4/' | sed 's/, texmode_independent//' | sed 's/\(\.extern \.const\[1\] .b8 \w\+\)\[\]/\1\[1\]/' | sed 's/const\[.\]/const\[0\]/g' > _ptx2_iRLLpg
GPGPU-Sim PTX: generating ptxinfo using "$CUDA_INSTALL_PATH/bin/ptxas --gpu-name=sm_20 -v _ptx2_iRLLpg --output-file  /dev/null 2> _ptx_sA9WA3info"
GPGPU-Sim PTX: Kernel '_Z18larger_sad_calc_16Ptii' : regs=16, lmem=0, smem=0, cmem=52
GPGPU-Sim PTX: Kernel '_Z17larger_sad_calc_8Ptii' : regs=16, lmem=0, smem=0, cmem=48
GPGPU-Sim PTX: Kernel '_Z11mb_sad_calcPtS_ii' : regs=32, lmem=0, smem=32, cmem=64
[...]
dram[2]:         0         0         0         0         0         0         0         0         0         0         0         0         0         0         0         0 
dram[3]:         0         0         0         0         0         0         0         0         0         0         0         0         0         0         0         0 
dram[4]:         0         0         0         0         0         0         0         0         0         0         0         0         0         0         0         0 
dram[5]:         0         0         0         0         0         0         0         0         0         0         0         0         0         0         0         0 
total accesses: 0
min_bank_accesses = 0!
min_chip_accesses = 0!
number of total read accesses:
dram[0]:      2739      2778      2745      2774      2758      2788      2820      2837      2816      2802      2818      2800      2790      2806      2733      2724 
dram[1]:      2740      2750      2758      2745      2793      2805      2825      2822      2794      2821      2782      2830      2812      2811      2738      2706 
dram[2]:      2722      2772      2768      2762      2789      2804      2847      2813      2824      2794      2821      2802      2819      2807      2705      2735 
dram[3]:      2760      2767      2762      2774      2784      2826      2823      2835      2802      2827      2818      2818      2829      2800      2724      2729 
dram[4]:      2766      2755      2772      2770      2785      2805      2858      2830      2809      2808      2810      2816      2815      2816      2723      2767 
dram[5]:      2768      2742      2767      2774      2795      2800      2839      2820      2804      2805      2808      2768      2825      2786      2728      2736 
total reads: 267592
bank skew: 2858/2705 = 1.06
chip skew: 44705/44528 = 1.00
number of total write accesses:
dram[0]:      2620      2610      2657      2656      2647      2652      2658      2640      2678      2680      2640      2628      2624      2626      2592      2596 
dram[1]:      2629      2625      2664      2648      2641      2654      2637      2640      2666      2691      2630      2628      2631      2614      2583      2584 
dram[2]:      2616      2620      2664      2642      2642      2641      2649      2635      2669      2680      2632      2632      2624      2620      2582      2603 
dram[3]:      2620      2620      2665      2654      2644      2657      2639      2649      2670      2675      2633      2622      2640      2619      2590      2596 
dram[4]:      2620      2620      2668      2656      2646      2648      2648      2654      2659      2683      2628      2634      2624      2634      2580      2614 
dram[5]:      2619      2624      2637      2673      2637      2660      2646      2648      2674      2682      2621      2615      2630      2625      2596      2598 
total reads: 253114
bank skew: 2691/2580 = 1.04
chip skew: 42216/42151 = 1.00
average mf latency per bank:
dram[0]:        603       597       612       606       612       611       617       614       598       601       640       620       640       634       615       607
dram[1]:        605       584       627       600       638       620       637       608       626       602       653       622       642       631       617       604
dram[2]:        611       589       635       602       647       614       648       611       623       602       653       618       663       632       640       606
dram[3]:        631       634       648       662       651       671       655       663       649       652       665       671       668       682       654       665
dram[4]:        607       600       617       610       613       621       632       628       625       608       639       640       640       631       608       618
dram[5]:        611       600       631       622       621       626       632       620       603       608       619       646       636       646       617       618
maximum mf latency per bank:
dram[0]:       3090      3424      4203      3174      2827      2945      2982      2963      2837      3519      2927      2786      3140      2833      3184      3021
dram[1]:       2825      3716      3720      2867      3026      3090      2926      3029      2844      3340      2814      3781      2947      2810      3112      3064
dram[2]:       3835      3487      3677      2876      2950      3064      3375      2709      3108      2567      3306      3189      3141      2827      3434      3022
dram[3]:       3152      3285      3316      4035      3113      3312      3810      3110      3298      3111      3177      3574      3198      3072      3281      3353
dram[4]:       3111      3072      3165      4000      2745      3354      2779      2668      3377      2602      3286      2981      3239      2944      3220      3023
dram[5]:       3626      2672      2794      3664      2895      3017      3048      2809      2988      2789      3287      2659      3247      3079      2947      3086
DRAM[0]: 16 bks, busW=4 BL=8 CL=12, tRRD=2 tCCD=6, tRCD=12 tRAS=28 tRP=12 tRC=40
n_cmd=576811 n_nop=350363 n_act=35017 n_pre=35001 n_req=76182 n_req_1=42432 n_req_2=33750 n_req_3=0 n_rd=89034 n_write=67396 bw_util=0.4692 bw_util_1=0.2579 bw_util_2=0.2113 bw_util_3=0 blp=6.434503 blp_1= 2.879474 blp_2= 4.052216 blp_3= -nan
 n_activity=553149 dram_eff=0.4893 dram_eff_1=0.269 dram_eff_2=0.2203 dram_eff_3=0
bk0: 5478a 372888i bk1: 5556a 366760i bk2: 5490a 360721i bk3: 5548a 356512i bk4: 5516a 352967i bk5: 5576a 353009i bk6: 5640a 346580i bk7: 5674a 341921i bk8: 5632a 368092i bk9: 5604a 364353i bk10: 5632a 357157i bk11: 5586a 357596i bk12: 5580a 354469i bk13: 5610a 352191i bk14: 5466a 354367i bk15: 5446a 351438i 
bw_dist = 0.258	0.211	0.000	0.490	0.041
dram_util_bins: 0 0 0 0 0 0 0 0 0 0
dram_eff_bins: 0 0 0 0 0 0 0 0 0 0
mrqq: max=16 avg=12.1543
DRAM[1]: 16 bks, busW=4 BL=8 CL=12, tRRD=2 tCCD=6, tRCD=12 tRAS=28 tRP=12 tRC=40
n_cmd=576811 n_nop=350672 n_act=34886 n_pre=34871 n_req=76224 n_req_1=42387 n_req_2=33837 n_req_3=0 n_rd=89040 n_write=67342 bw_util=0.4696 bw_util_1=0.2577 bw_util_2=0.2119 bw_util_3=0 blp=6.473540 blp_1= 2.878906 blp_2= 4.085094 blp_3= -nan
 n_activity=552274 dram_eff=0.4905 dram_eff_1=0.2692 dram_eff_2=0.2213 dram_eff_3=0
bk0: 5480a 369972i bk1: 5500a 366561i bk2: 5516a 356668i bk3: 5490a 357187i bk4: 5586a 354730i bk5: 5610a 349718i bk6: 5650a 348665i bk7: 5644a 342654i bk8: 5588a 366690i bk9: 5642a 360419i bk10: 5562a 358994i bk11: 5642a 354198i bk12: 5622a 351972i bk13: 5620a 349800i bk14: 5476a 354841i bk15: 5412a 350849i 
bw_dist = 0.258	0.212	0.000	0.488	0.043
dram_util_bins: 0 0 0 0 0 0 0 0 0 0
dram_eff_bins: 0 0 0 0 0 0 0 0 0 0
mrqq: max=16 avg=12.2223
DRAM[2]: 16 bks, busW=4 BL=8 CL=12, tRRD=2 tCCD=6, tRCD=12 tRAS=28 tRP=12 tRC=40
n_cmd=576811 n_nop=350305 n_act=35008 n_pre=34992 n_req=76258 n_req_1=42407 n_req_2=33851 n_req_3=0 n_rd=89156 n_write=67350 bw_util=0.47 bw_util_1=0.258 bw_util_2=0.212 bw_util_3=0 blp=6.448455 blp_1= 2.877697 blp_2= 4.064855 blp_3= -nan
 n_activity=552378 dram_eff=0.4908 dram_eff_1=0.2694 dram_eff_2=0.2214 dram_eff_3=0
bk0: 5444a 371492i bk1: 5544a 368410i bk2: 5536a 358682i bk3: 5524a 358824i bk4: 5578a 354821i bk5: 5608a 349039i bk6: 5694a 344149i bk7: 5626a 345057i bk8: 5648a 367193i bk9: 5588a 366450i bk10: 5638a 357196i bk11: 5600a 355529i bk12: 5638a 353564i bk13: 5612a 352231i bk14: 5410a 353022i bk15: 5468a 350397i 
bw_dist = 0.258	0.212	0.000	0.488	0.042
dram_util_bins: 0 0 0 0 0 0 0 0 0 0
dram_eff_bins: 0 0 0 0 0 0 0 0 0 0
mrqq: max=16 avg=12.1287
DRAM[3]: 16 bks, busW=4 BL=8 CL=12, tRRD=2 tCCD=6, tRCD=12 tRAS=28 tRP=12 tRC=40
n_cmd=576811 n_nop=349614 n_act=35264 n_pre=35248 n_req=76410 n_req_1=42453 n_req_2=33957 n_req_3=0 n_rd=89330 n_write=67355 bw_util=0.4708 bw_util_1=0.2581 bw_util_2=0.2126 bw_util_3=0 blp=6.506363 blp_1= 2.910559 blp_2= 4.118878 blp_3= -nan
 n_activity=553272 dram_eff=0.4908 dram_eff_1=0.2691 dram_eff_2=0.2217 dram_eff_3=0
bk0: 5520a 369215i bk1: 5534a 363817i bk2: 5524a 355984i bk3: 5548a 354765i bk4: 5568a 353804i bk5: 5652a 344947i bk6: 5646a 345572i bk7: 5670a 341297i bk8: 5604a 369019i bk9: 5654a 359390i bk10: 5624a 357105i bk11: 5628a 354409i bk12: 5656a 348901i bk13: 5598a 349684i bk14: 5448a 353443i bk15: 5456a 349060i 
bw_dist = 0.258	0.213	0.000	0.488	0.041
dram_util_bins: 0 0 0 0 0 0 0 0 0 0
dram_eff_bins: 0 0 0 0 0 0 0 0 0 0
mrqq: max=16 avg=12.3125
DRAM[4]: 16 bks, busW=4 BL=8 CL=12, tRRD=2 tCCD=6, tRCD=12 tRAS=28 tRP=12 tRC=40
n_cmd=576811 n_nop=350512 n_act=34757 n_pre=34742 n_req=76434 n_req_1=42520 n_req_2=33914 n_req_3=0 n_rd=89392 n_write=67408 bw_util=0.471 bw_util_1=0.2586 bw_util_2=0.2123 bw_util_3=0 blp=6.478905 blp_1= 2.882356 blp_2= 4.106732 blp_3= -nan
 n_activity=552822 dram_eff=0.4914 dram_eff_1=0.2699 dram_eff_2=0.2215 dram_eff_3=0
bk0: 5532a 367637i bk1: 5510a 363613i bk2: 5544a 358124i bk3: 5540a 355150i bk4: 5570a 355051i bk5: 5610a 350306i bk6: 5716a 343910i bk7: 5660a 345983i bk8: 5618a 367147i bk9: 5616a 363223i bk10: 5611a 357931i bk11: 5626a 354735i bk12: 5628a 352129i bk13: 5632a 351015i bk14: 5445a 353465i bk15: 5534a 350345i 
bw_dist = 0.259	0.212	0.000	0.487	0.042
dram_util_bins: 0 0 0 0 0 0 0 0 0 0
dram_eff_bins: 0 0 0 0 0 0 0 0 0 0
mrqq: max=16 avg=12.1791
DRAM[5]: 16 bks, busW=4 BL=8 CL=12, tRRD=2 tCCD=6, tRCD=12 tRAS=28 tRP=12 tRC=40
n_cmd=576811 n_nop=350711 n_act=34807 n_pre=34791 n_req=76216 n_req_1=42447 n_req_2=33769 n_req_3=0 n_rd=89117 n_write=67385 bw_util=0.4696 bw_util_1=0.2582 bw_util_2=0.2114 bw_util_3=0 blp=6.438334 blp_1= 2.887232 blp_2= 4.036763 blp_3= -nan
 n_activity=552528 dram_eff=0.4902 dram_eff_1=0.2695 dram_eff_2=0.2207 dram_eff_3=0
bk0: 5536a 368676i bk1: 5484a 369818i bk2: 5534a 359038i bk3: 5548a 356676i bk4: 5590a 353820i bk5: 5600a 349560i bk6: 5678a 345685i bk7: 5640a 345950i bk8: 5608a 367449i bk9: 5610a 366542i bk10: 5609a 359990i bk11: 5532a 356373i bk12: 5650a 351806i bk13: 5570a 354027i bk14: 5456a 356238i bk15: 5472a 349950i 
bw_dist = 0.258	0.211	0.000	0.488	0.042
dram_util_bins: 0 0 0 0 0 0 0 0 0 0
dram_eff_bins: 0 0 0 0 0 0 0 0 0 0
mrqq: max=16 avg=12.1916

========= L2 cache stats =========
L2_cache_bank[0]: Access = 47420, Miss = 22229, Miss_rate = 0.469, Pending_hits = 6424, Reservation_fails = 4942
L2_cache_bank[1]: Access = 46466, Miss = 22316, Miss_rate = 0.480, Pending_hits = 6269, Reservation_fails = 4261
L2_cache_bank[2]: Access = 47498, Miss = 22252, Miss_rate = 0.468, Pending_hits = 6435, Reservation_fails = 5060
L2_cache_bank[3]: Access = 46331, Miss = 22292, Miss_rate = 0.481, Pending_hits = 6353, Reservation_fails = 3820
L2_cache_bank[4]: Access = 48193, Miss = 22300, Miss_rate = 0.463, Pending_hits = 6355, Reservation_fails = 5624
L2_cache_bank[5]: Access = 46347, Miss = 22296, Miss_rate = 0.481, Pending_hits = 6351, Reservation_fails = 3371
L2_cache_bank[6]: Access = 48139, Miss = 22309, Miss_rate = 0.463, Pending_hits = 6175, Reservation_fails = 3572
L2_cache_bank[7]: Access = 46543, Miss = 22382, Miss_rate = 0.481, Pending_hits = 6536, Reservation_fails = 3875
L2_cache_bank[8]: Access = 47996, Miss = 22347, Miss_rate = 0.466, Pending_hits = 6196, Reservation_fails = 6703
L2_cache_bank[9]: Access = 47661, Miss = 22370, Miss_rate = 0.469, Pending_hits = 6547, Reservation_fails = 6973
L2_cache_bank[10]: Access = 47783, Miss = 22338, Miss_rate = 0.467, Pending_hits = 6074, Reservation_fails = 6736
L2_cache_bank[11]: Access = 47914, Miss = 22234, Miss_rate = 0.464, Pending_hits = 6586, Reservation_fails = 5068
Cache L2_bank_000:	Size = 65536 B (64 Set x 8-way x 128 byte line)
		Access = 47420, Miss = 22229 (0.469), PendingHit = 6424 (0.135)
Cache L2_bank_001:	Size = 65536 B (64 Set x 8-way x 128 byte line)
		Access = 46466, Miss = 22316 (0.48), PendingHit = 6269 (0.135)
Cache L2_bank_002:	Size = 65536 B (64 Set x 8-way x 128 byte line)
		Access = 47498, Miss = 22252 (0.468), PendingHit = 6435 (0.135)
Cache L2_bank_003:	Size = 65536 B (64 Set x 8-way x 128 byte line)
		Access = 46331, Miss = 22292 (0.481), PendingHit = 6353 (0.137)
Cache L2_bank_004:	Size = 65536 B (64 Set x 8-way x 128 byte line)
		Access = 48193, Miss = 22300 (0.463), PendingHit = 6355 (0.132)
Cache L2_bank_005:	Size = 65536 B (64 Set x 8-way x 128 byte line)
		Access = 46347, Miss = 22296 (0.481), PendingHit = 6351 (0.137)
Cache L2_bank_006:	Size = 65536 B (64 Set x 8-way x 128 byte line)
		Access = 48139, Miss = 22309 (0.463), PendingHit = 6175 (0.128)
Cache L2_bank_007:	Size = 65536 B (64 Set x 8-way x 128 byte line)
		Access = 46543, Miss = 22382 (0.481), PendingHit = 6536 (0.14)
Cache L2_bank_008:	Size = 65536 B (64 Set x 8-way x 128 byte line)
		Access = 47996, Miss = 22347 (0.466), PendingHit = 6196 (0.129)
Cache L2_bank_009:	Size = 65536 B (64 Set x 8-way x 128 byte line)
		Access = 47661, Miss = 22370 (0.469), PendingHit = 6547 (0.137)
Cache L2_bank_010:	Size = 65536 B (64 Set x 8-way x 128 byte line)
		Access = 47783, Miss = 22338 (0.467), PendingHit = 6074 (0.127)
Cache L2_bank_011:	Size = 65536 B (64 Set x 8-way x 128 byte line)
		Access = 47914, Miss = 22234 (0.464), PendingHit = 6586 (0.137)
L2 Cache Total Miss Rate = 0.471
Stream 1: L2 Cache Miss Rate = 0.395
Stream 2: L2 Cache Miss Rate = 0.634
Stream 1: Accesses  = 386595
Stream 1: Misses  = 152538
Stream 2: Accesses  = 181696
Stream 2: Misses  = 115127
Stream 1+2: Accesses  = 568291
Stream 1+2: Misses  = 267665
Total Accesses  = 568291
MPKI-CORES
CORE_L2MPKI_0	0.541
CORE_L2MPKI_1	1.438
CORE_L2MPKI_2	0.670
CORE_L2MPKI_3	1.285
CORE_L2MPKI_4	0.571
CORE_L2MPKI_5	1.837
CORE_L2MPKI_6	0.855
CORE_L2MPKI_7	1.463
CORE_L2MPKI_8	0.509
CORE_L2MPKI_9	0.993
CORE_L2MPKI_10	1.439
CORE_L2MPKI_11	1.156
CORE_L2MPKI_12	0.535
CORE_L2MPKI_13	1.214
CORE_L2MPKI_14	1.195
CORE_L2MPKI_15	1.953
CORE_L2MPKI_16	0.593
CORE_L2MPKI_17	1.298
CORE_L2MPKI_18	0.594
CORE_L2MPKI_19	2.415
CORE_L2MPKI_20	0.601
CORE_L2MPKI_21	1.546
CORE_L2MPKI_22	0.742
CORE_L2MPKI_23	2.373
CORE_L2MPKI_24	0.612
CORE_L2MPKI_25	0.984
CORE_L2MPKI_26	0.846
CORE_L2MPKI_27	1.553
CORE_L2MPKI_28	0.780
CORE_L2MPKI_29	1.126
CORE_L2MPKI_30	0.472
CORE_L2MPKI_31	0.466
CORE_L2MPKI_32	0.469
CORE_L2MPKI_33	0.402
CORE_L2MPKI_34	0.404
CORE_L2MPKI_35	0.405
CORE_L2MPKI_36	0.403
CORE_L2MPKI_37	0.401
CORE_L2MPKI_38	0.398
CORE_L2MPKI_39	0.378
CORE_L2MPKI_40	0.381
CORE_L2MPKI_41	0.386
CORE_L2MPKI_42	0.382
CORE_L2MPKI_43	0.383
CORE_L2MPKI_44	0.382
CORE_L2MPKI_45	0.385
CORE_L2MPKI_46	0.382
CORE_L2MPKI_47	0.383
CORE_L2MPKI_48	0.381
CORE_L2MPKI_49	0.381
CORE_L2MPKI_50	0.383
CORE_L2MPKI_51	0.380
CORE_L2MPKI_52	0.376
CORE_L2MPKI_53	0.382
CORE_L2MPKI_54	0.462
CORE_L2MPKI_55	0.459
CORE_L2MPKI_56	0.464
CORE_L2MPKI_57	0.460
CORE_L2MPKI_58	0.447
CORE_L2MPKI_59	0.451
Avg_MPKI_Stream1= 1.124
Avg_MPKI_Stream2= 0.410
MISSES-CORES
CORE_MISSES_0	4320
CORE_MISSES_1	6446
CORE_MISSES_2	4858
CORE_MISSES_3	8278
CORE_MISSES_4	4861
CORE_MISSES_5	7363
CORE_MISSES_6	4554
CORE_MISSES_7	5783
CORE_MISSES_8	3932
CORE_MISSES_9	3084
CORE_MISSES_10	6422
CORE_MISSES_11	4690
CORE_MISSES_12	4086
CORE_MISSES_13	5904
CORE_MISSES_14	5312
CORE_MISSES_15	3277
CORE_MISSES_16	4104
CORE_MISSES_17	5127
CORE_MISSES_18	4563
CORE_MISSES_19	5335
CORE_MISSES_20	4178
CORE_MISSES_21	6526
CORE_MISSES_22	4714
CORE_MISSES_23	4615
CORE_MISSES_24	4248
CORE_MISSES_25	3007
CORE_MISSES_26	5409
CORE_MISSES_27	6387
CORE_MISSES_28	4444
CORE_MISSES_29	6711
CORE_MISSES_30	4465
CORE_MISSES_31	4405
CORE_MISSES_32	4436
CORE_MISSES_33	3777
CORE_MISSES_34	3724
CORE_MISSES_35	3806
CORE_MISSES_36	3717
CORE_MISSES_37	3771
CORE_MISSES_38	3735
CORE_MISSES_39	3550
CORE_MISSES_40	3578
CORE_MISSES_41	3618
CORE_MISSES_42	3579
CORE_MISSES_43	3589
CORE_MISSES_44	3584
CORE_MISSES_45	3612
CORE_MISSES_46	3582
CORE_MISSES_47	3594
CORE_MISSES_48	3577
CORE_MISSES_49	3573
CORE_MISSES_50	3592
CORE_MISSES_51	3568
CORE_MISSES_52	3526
CORE_MISSES_53	3581
CORE_MISSES_54	4282
CORE_MISSES_55	4254
CORE_MISSES_56	4302
CORE_MISSES_57	4266
CORE_MISSES_58	4223
CORE_MISSES_59	4261
L2_MISSES = 267665
L2_total_cache_accesses = 568291
L2_total_cache_misses = 267665
L2_total_cache_miss_rate = 0.4710
L2_total_cache_pending_hits = 76301
L2_total_cache_reservation_fails = 60005
L2_total_cache_breakdown:
	L2_cache_stats_breakdown[GLOBAL_ACC_R][HIT] = 131609
	L2_cache_stats_breakdown[GLOBAL_ACC_R][HIT_RESERVED] = 37563
	L2_cache_stats_breakdown[GLOBAL_ACC_R][MISS] = 115153
	L2_cache_stats_breakdown[GLOBAL_ACC_R][RESERVATION_FAIL] = 32715
	L2_cache_stats_breakdown[CONST_ACC_R][HIT] = 55
	L2_cache_stats_breakdown[CONST_ACC_R][HIT_RESERVED] = 3
	L2_cache_stats_breakdown[CONST_ACC_R][MISS] = 2
	L2_cache_stats_breakdown[CONST_ACC_R][RESERVATION_FAIL] = 100
	L2_cache_stats_breakdown[TEXTURE_ACC_R][HIT] = 5366
	L2_cache_stats_breakdown[TEXTURE_ACC_R][HIT_RESERVED] = 278
	L2_cache_stats_breakdown[TEXTURE_ACC_R][MISS] = 309
	L2_cache_stats_breakdown[TEXTURE_ACC_R][RESERVATION_FAIL] = 2015
	L2_cache_stats_breakdown[GLOBAL_ACC_W][HIT] = 74078
	L2_cache_stats_breakdown[GLOBAL_ACC_W][HIT_RESERVED] = 38147
	L2_cache_stats_breakdown[GLOBAL_ACC_W][MISS] = 152049
	L2_cache_stats_breakdown[GLOBAL_ACC_W][RESERVATION_FAIL] = 15462
	L2_cache_stats_breakdown[INST_ACC_R][HIT] = 13217
	L2_cache_stats_breakdown[INST_ACC_R][HIT_RESERVED] = 310
	L2_cache_stats_breakdown[INST_ACC_R][MISS] = 152
	L2_cache_stats_breakdown[INST_ACC_R][RESERVATION_FAIL] = 9713
L2_cache_data_port_util = 0.171
L2_cache_fill_port_util = 0.000

icnt_total_pkts_mem_to_simt=1783609
icnt_total_pkts_simt_to_mem=1250181
LD_mem_lat_dist  0 0 0 0 0 0 0 0 0 0 0 0 0 0 0 0 0 0 0 0 0 0 0 0 0 0 0
ST_mem_lat_dist  0 0 0 0 0 0 0 0 0 0 0 0 0 0 0 0 0 0 0 0 0 0 0 0 0 0 0
----------------------------Interconnect-DETAILS--------------------------------
Class 0:
Packet latency average = 72.6243
	minimum = 6
	maximum = 2888
Network latency average = 47.7728
	minimum = 6
	maximum = 2164
Slowest packet = 773042
Flit latency average = 35.5795
	minimum = 6
	maximum = 2164
Slowest flit = 2288908
Fragmentation average = 0.322193
	minimum = 0
	maximum = 610
Injected packet rate average = 0.0361257
	minimum = 0.0114788 (at node 15)
	maximum = 0.110257 (at node 64)
Accepted packet rate average = 0.0361241
	minimum = 0.0114559 (at node 15)
	maximum = 0.110307 (at node 64)
Injected flit rate average = 0.0964274
	minimum = 0.0190581 (at node 15)
	maximum = 0.349674 (at node 64)
Accepted flit rate average= 0.0964247
	minimum = 0.0302074 (at node 39)
	maximum = 0.24032 (at node 64)
Injected packet length average = 2.66922
Accepted packet length average = 2.66926
Total in-flight flits = 120 (120 measured)
====== Overall Traffic Statistics ======
====== Traffic class 0 ======
Packet latency average = 54.5912 (5 samples)
	minimum = 6 (5 samples)
	maximum = 2253.6 (5 samples)
Network latency average = 37.0376 (5 samples)
	minimum = 6 (5 samples)
	maximum = 1817.2 (5 samples)
Flit latency average = 27.8323 (5 samples)
	minimum = 6 (5 samples)
	maximum = 1817.2 (5 samples)
Fragmentation average = 0.233363 (5 samples)
	minimum = 0 (5 samples)
	maximum = 559.8 (5 samples)
Injected packet rate average = 0.0373566 (5 samples)
	minimum = 0.00817042 (5 samples)
	maximum = 0.114379 (5 samples)
Accepted packet rate average = 0.0373556 (5 samples)
	minimum = 0.00816534 (5 samples)
	maximum = 0.114423 (5 samples)
Injected flit rate average = 0.100409 (5 samples)
	minimum = 0.0145654 (5 samples)
	maximum = 0.374213 (5 samples)
Accepted flit rate average = 0.100407 (5 samples)
	minimum = 0.0215959 (5 samples)
	maximum = 0.242279 (5 samples)
Injected packet size average = 2.68786 (5 samples)
Accepted packet size average = 2.68787 (5 samples)
Hops average = 1 (5 samples)
----------------------------END-of-Interconnect-DETAILS-------------------------
IO:      0.192819
GPU:     1038.983592
Copy:    0.295453
Compute: 0.000138
event update
BOTH APPS ARE FINISHED
