

        *** GPGPU-Sim Simulator Version 3.2.2  [build 17315] ***


GPGPU-Sim PTX: simulation mode 0 (can change with PTX_SIM_MODE_FUNC environment variable:
               1=functional simulation only, 0=detailed performance simulator)
GPGPU-Sim: Configuration options:

-network_mode                           1 # Interconnection network mode
-inter_config_file   config_fermi_islip.icnt # Interconnection network config file
-gpgpu_ptx_use_cuobjdump                    0 # Use cuobjdump to extract ptx and sass from binaries
-gpgpu_experimental_lib_support                    0 # Try to extract code from cuda libraries [Broken because of unknown cudaGetExportTable]
-gpgpu_ptx_convert_to_ptxplus                    0 # Convert SASS (native ISA) to ptxplus and run ptxplus
-gpgpu_ptx_force_max_capability                   20 # Force maximum compute capability
-gpgpu_ptx_inst_debug_to_file                    0 # Dump executed instructions' debug information to file
-gpgpu_ptx_inst_debug_file       inst_debug.txt # Executed instructions' debug output file
-gpgpu_ptx_inst_debug_thread_uid                    1 # Thread UID for executed instructions' debug output
-gpgpu_simd_model                       1 # 1 = post-dominator
-gpgpu_shader_core_pipeline              1536:32 # shader core pipeline config, i.e., {<nthread>:<warpsize>}
-gpgpu_tex_cache:l1  4:128:24,L:R:m:N,F:128:4,128:2 # per-shader L1 texture cache  (READ-ONLY) config  {<nsets>:<bsize>:<assoc>,<rep>:<wr>:<alloc>:<wr_alloc>,<mshr>:<N>:<merge>,<mq>:<rf>}
-gpgpu_const_cache:l1 64:64:2,L:R:f:N,A:2:32,4 # per-shader L1 constant memory cache  (READ-ONLY) config  {<nsets>:<bsize>:<assoc>,<rep>:<wr>:<alloc>:<wr_alloc>,<mshr>:<N>:<merge>,<mq>} 
-gpgpu_cache:il1     4:128:4,L:R:f:N,A:2:32,4 # shader L1 instruction cache config  {<nsets>:<bsize>:<assoc>,<rep>:<wr>:<alloc>:<wr_alloc>,<mshr>:<N>:<merge>,<mq>} 
-gpgpu_cache:dl1     32:128:4,L:L:m:N,A:32:8,8 # per-shader L1 data cache config  {<nsets>:<bsize>:<assoc>,<rep>:<wr>:<alloc>:<wr_alloc>,<mshr>:<N>:<merge>,<mq> | none}
-gpgpu_cache:dl1PrefL1                 none # per-shader L1 data cache config  {<nsets>:<bsize>:<assoc>,<rep>:<wr>:<alloc>:<wr_alloc>,<mshr>:<N>:<merge>,<mq> | none}
-gpgpu_cache:dl1PreShared                 none # per-shader L1 data cache config  {<nsets>:<bsize>:<assoc>,<rep>:<wr>:<alloc>:<wr_alloc>,<mshr>:<N>:<merge>,<mq> | none}
-gmem_skip_L1D                          0 # global memory access skip L1D cache (implements -Xptxas -dlcm=cg, default=no skip)
-gpgpu_perfect_mem                      0 # enable perfect memory mode (no cache miss)
-n_regfile_gating_group                    4 # group of lanes that should be read/written together)
-gpgpu_clock_gated_reg_file                    0 # enable clock gated reg file for power calculations
-gpgpu_clock_gated_lanes                    0 # enable clock gated lanes for power calculations
-gpgpu_shader_registers                32768 # Number of registers per shader core. Limits number of concurrent CTAs. (default 8192)
-gpgpu_shader_cta                       8 # Maximum number of concurrent CTAs in shader (default 8)
-gpgpu_n_clusters                      60 # number of processing clusters
-gpgpu_n_cores_per_cluster                    1 # number of simd cores per cluster
-gpgpu_n_cluster_ejection_buffer_size                    8 # number of packets in ejection buffer
-gpgpu_n_ldst_response_buffer_size                    2 # number of response packets in ld/st unit ejection buffer
-gpgpu_shmem_size                   16384 # Size of shared memory per shader core (default 16kB)
-gpgpu_shmem_size                   49152 # Size of shared memory per shader core (default 16kB)
-gpgpu_shmem_size_PrefL1                16384 # Size of shared memory per shader core (default 16kB)
-gpgpu_shmem_size_PrefShared                16384 # Size of shared memory per shader core (default 16kB)
-gpgpu_shmem_num_banks                   32 # Number of banks in the shared memory in each shader core (default 16)
-gpgpu_shmem_limited_broadcast                    0 # Limit shared memory to do one broadcast per cycle (default on)
-gpgpu_shmem_warp_parts                    1 # Number of portions a warp is divided into for shared memory bank conflict check 
-gpgpu_warpdistro_shader                   -1 # Specify which shader core to collect the warp size distribution from
-gpgpu_warp_issue_shader                    0 # Specify which shader core to collect the warp issue distribution from
-gpgpu_local_mem_map                    1 # Mapping from local memory space address to simulated GPU physical address space (default = enabled)
-gpgpu_num_reg_banks                   16 # Number of register banks (default = 8)
-gpgpu_reg_bank_use_warp_id                    0 # Use warp ID in mapping registers to banks (default = off)
-gpgpu_operand_collector_num_units_sp                    6 # number of collector units (default = 4)
-gpgpu_operand_collector_num_units_sfu                    8 # number of collector units (default = 4)
-gpgpu_operand_collector_num_units_mem                    2 # number of collector units (default = 2)
-gpgpu_operand_collector_num_units_gen                    0 # number of collector units (default = 0)
-gpgpu_operand_collector_num_in_ports_sp                    2 # number of collector unit in ports (default = 1)
-gpgpu_operand_collector_num_in_ports_sfu                    1 # number of collector unit in ports (default = 1)
-gpgpu_operand_collector_num_in_ports_mem                    1 # number of collector unit in ports (default = 1)
-gpgpu_operand_collector_num_in_ports_gen                    0 # number of collector unit in ports (default = 0)
-gpgpu_operand_collector_num_out_ports_sp                    2 # number of collector unit in ports (default = 1)
-gpgpu_operand_collector_num_out_ports_sfu                    1 # number of collector unit in ports (default = 1)
-gpgpu_operand_collector_num_out_ports_mem                    1 # number of collector unit in ports (default = 1)
-gpgpu_operand_collector_num_out_ports_gen                    0 # number of collector unit in ports (default = 0)
-gpgpu_coalesce_arch                   13 # Coalescing arch (default = 13, anything else is off for now)
-gpgpu_num_sched_per_core                    2 # Number of warp schedulers per core
-gpgpu_max_insn_issue_per_warp                    1 # Max number of instructions that can be issued per warp in one cycle by scheduler
-gpgpu_simt_core_sim_order                    1 # Select the simulation order of cores in a cluster (0=Fix, 1=Round-Robin)
-gpgpu_pipeline_widths        2,1,1,2,1,1,2 # Pipeline widths ID_OC_SP,ID_OC_SFU,ID_OC_MEM,OC_EX_SP,OC_EX_SFU,OC_EX_MEM,EX_WB
-gpgpu_num_sp_units                     2 # Number of SP units (default=1)
-gpgpu_num_sfu_units                    1 # Number of SF units (default=1)
-gpgpu_num_mem_units                    1 # Number if ldst units (default=1) WARNING: not hooked up to anything
-gpgpu_scheduler                      gto # Scheduler configuration: < lrr | gto | two_level_active > If two_level_active:<num_active_warps>:<inner_prioritization>:<outer_prioritization>For complete list of prioritization values see shader.h enum scheduler_prioritization_typeDefault: gto
-gpgpu_dram_scheduler                    1 # 0 = fifo, 1 = FR-FCFS (defaul)
-gpgpu_dram_partition_queues              8:8:8:8 # i2$:$2d:d2$:$2i
-l2_ideal                               0 # Use a ideal L2 cache that always hit
-gpgpu_cache:dl2     64:128:8,L:B:m:W,A:32:4,4:0,32 # unified banked L2 data cache config  {<nsets>:<bsize>:<assoc>,<rep>:<wr>:<alloc>:<wr_alloc>,<mshr>:<N>:<merge>,<mq>}
-gpgpu_cache:dl2_texture_only                    0 # L2 cache used for texture only
-gpgpu_n_mem                            6 # number of memory modules (e.g. memory controllers) in gpu
-gpgpu_n_sub_partition_per_mchannel                    2 # number of memory subpartition in each memory module
-gpgpu_n_mem_per_ctrlr                    2 # number of memory chips per memory controller
-gpgpu_memlatency_stat                   14 # track and display latency statistics 0x2 enables MC, 0x4 enables queue logs
-gpgpu_frfcfs_dram_sched_queue_size                   16 # 0 = unlimited (default); # entries per chip
-gpgpu_dram_return_queue_size                  116 # 0 = unlimited (default); # entries per chip
-gpgpu_num_groups                       3 # number of containers (application equal partitions)
-gpgpu_mode3                            1 # 3 apps or not
-gpgpu_sms_app1                        20 # core partitioning
-gpgpu_sms_T2                          20 # core partitioning
-gpgpu_dram_buswidth                    4 # default = 4 bytes (8 bytes per cycle at DDR)
-gpgpu_dram_burst_length                    8 # Burst length of each DRAM request (default = 4 data bus cycle)
-dram_data_command_freq_ratio                    4 # Frequency ratio between DRAM data bus and command bus (default = 2 times, i.e. DDR)
-gpgpu_dram_timing_opt nbk=16:CCD=2:RRD=6:RCD=12:RAS=28:RP=12:RC=40: CL=12:WL=4:CDLR=5:WR=12:nbkgrp=4:CCDL=3:RTPL=2 # DRAM timing parameters = {nbk:tCCD:tRRD:tRCD:tRAS:tRP:tRC:CL:WL:tCDLR:tWR:nbkgrp:tCCDL:tRTPL}
-rop_latency                          120 # ROP queue latency (default 85)
-dram_latency                         100 # DRAM latency (default 30)
-gpu_char                               0 # gpu char activated
-gpu_app                                1 # gpu mul app code activated
-gpgpu_mem_addr_mapping dramid@8;00000000.00000000.00000000.00000000.0000RRRR.RRRRRRRR.BBBCCCCB.CCSSSSSS # mapping memory address to dram model {dramid@<start bit>;<memory address map>}
-gpgpu_mem_addr_test                    0 # run sweep test to check address mapping for aliased address
-gpgpu_mem_address_mask                    1 # 0 = old addressing mask, 1 = new addressing mask, 2 = new add. mask + flipped bank sel and chip sel bits
-gpuwattch_xml_file  gpuwattch_gtx480.xml # GPUWattch XML file
-power_simulation_enabled                    0 # Turn on power simulator (1=On, 0=Off)
-power_per_cycle_dump                    0 # Dump detailed power output each cycle
-power_trace_enabled                    0 # produce a file for the power trace (1=On, 0=Off)
-power_trace_zlevel                     6 # Compression level of the power trace output log (0=no comp, 9=highest)
-steady_power_levels_enabled                    0 # produce a file for the steady power levels (1=On, 0=Off)
-steady_state_definition                  8:4 # allowed deviation:number of samples
-gpgpu_max_cycle                        0 # terminates gpu simulation early (0 = no limit)
-gpgpu_max_insn                1000000000 # terminates gpu simulation early (0 = no limit)
-gpgpu_max_cta                          0 # terminates gpu simulation early (0 = no limit)
-gpgpu_runtime_stat                   500 # display runtime statistics such as dram utilization {<freq>:<flag>}
-liveness_message_freq                    1 # Minimum number of seconds between simulation liveness messages (0 = always print)
-gpgpu_flush_l1_cache                    0 # Flush L1 cache at the end of each kernel call
-gpgpu_flush_l2_cache                    0 # Flush L2 cache at the end of each kernel call
-gpgpu_deadlock_detect                    1 # Stop the simulation at deadlock (1=on (default), 0=off)
-gpgpu_ptx_instruction_classification                    0 # if enabled will classify ptx instruction types per kernel (Max 255 kernels now)
-gpgpu_ptx_sim_mode                     0 # Select between Performance (default) or Functional simulation (1)
-gpgpu_clock_domains 700.0:700.0:700.0:924.0 # Clock Domain Frequencies in MhZ {<Core Clock>:<ICNT Clock>:<L2 Clock>:<DRAM Clock>}
-gpgpu_max_concurrent_kernel                    8 # maximum kernels that can run concurrently on GPU
-gpgpu_cflog_interval                    0 # Interval between each snapshot in control flow logger
-visualizer_enabled                     0 # Turn on visualizer output (1=On, 0=Off)
-visualizer_outputfile                 NULL # Specifies the output log file for visualizer
-visualizer_zlevel                      6 # Compression level of the visualizer output log (0=no comp, 9=highest)
-trace_enabled                          0 # Turn on traces
-trace_components                    none # comma seperated list of traces to enable. Complete list found in trace_streams.tup. Default none
-trace_sampling_core                    0 # The core which is printed using CORE_DPRINTF. Default 0
-trace_sampling_memory_partition                   -1 # The memory partition which is printed using MEMPART_DPRINTF. Default -1 (i.e. all)
-enable_ptx_file_line_stats                    1 # Turn on PTX source line statistic profiling. (1 = On)
-ptx_line_stats_filename gpgpu_inst_stats.txt # Output file for PTX source line statistics.
-save_embedded_ptx                      0 # saves ptx files embedded in binary as <n>.ptx
-keep                                   0 # keep intermediate files created by GPGPU-Sim when interfacing with external programs
-gpgpu_ptx_save_converted_ptxplus                    0 # Saved converted ptxplus to a file
-ptx_opcode_latency_int         4,13,4,5,145 # Opcode latencies for integers <ADD,MAX,MUL,MAD,DIV>Default 1,1,19,25,145
-ptx_opcode_latency_fp          4,13,4,5,39 # Opcode latencies for single precision floating points <ADD,MAX,MUL,MAD,DIV>Default 1,1,1,1,30
-ptx_opcode_latency_dp         8,19,8,8,330 # Opcode latencies for double precision floating points <ADD,MAX,MUL,MAD,DIV>Default 8,8,8,8,335
-ptx_opcode_initiation_int            1,2,2,1,8 # Opcode initiation intervals for integers <ADD,MAX,MUL,MAD,DIV>Default 1,1,4,4,32
-ptx_opcode_initiation_fp            1,2,1,1,4 # Opcode initiation intervals for single precision floating points <ADD,MAX,MUL,MAD,DIV>Default 1,1,1,1,5
-ptx_opcode_initiation_dp         8,16,8,8,130 # Opcode initiation intervals for double precision floating points <ADD,MAX,MUL,MAD,DIV>Default 8,8,8,8,130
DRAM Timing Options:
nbk                                    16 # number of banks
CCD                                     2 # column to column delay
RRD                                     6 # minimal delay between activation of rows in different banks
RCD                                    12 # row to column delay
RAS                                    28 # time needed to activate row
RP                                     12 # time needed to precharge (deactivate) row
RC                                     40 # row cycle time
CDLR                                    5 # switching from write to read (changes tWTR)
WR                                     12 # last data-in to row precharge
CL                                     12 # CAS latency
WL                                      4 # Write latency
nbkgrp                                  4 # number of bank groups
CCDL                                    3 # column to column delay between accesses to different bank groups
RTPL                                    2 # read to precharge delay between accesses to different bank groups
Total number of memory sub partition = 12
addr_dec_mask[CHIP]  = 0000000000000000 	high:64 low:0
addr_dec_mask[BK]    = 000000000000e100 	high:16 low:8
addr_dec_mask[ROW]   = 000000000fff0000 	high:28 low:16
addr_dec_mask[COL]   = 0000000000001eff 	high:13 low:0
addr_dec_mask[BURST] = 000000000000003f 	high:6 low:0
sub_partition_id_mask = 0000000000000100
GPGPU-Sim uArch: clock freqs: 700000000.000000:700000000.000000:700000000.000000:924000000.000000
GPGPU-Sim uArch: clock periods: 0.00000000142857142857:0.00000000142857142857:0.00000000142857142857:0.00000000108225108225
*** Initializing Memory Statistics ***
GPGPU-Sim uArch: interconnect node map (shaderID+MemID to icntID)
GPGPU-Sim uArch: Memory nodes ID start from index: 60
GPGPU-Sim uArch:    0   1   2   3   4   5   6   7
GPGPU-Sim uArch:    8   9  10  11  12  13  14  15
GPGPU-Sim uArch:   16  17  18  19  20  21  22  23
GPGPU-Sim uArch:   24  25  26  27  28  29  30  31
GPGPU-Sim uArch:   32  33  34  35  36  37  38  39
GPGPU-Sim uArch:   40  41  42  43  44  45  46  47
GPGPU-Sim uArch:   48  49  50  51  52  53  54  55
GPGPU-Sim uArch:   56  57  58  59  60  61  62  63
GPGPU-Sim uArch:   64  65  66  67  68  69  70  71
GPGPU-Sim uArch: interconnect node reverse map (icntID to shaderID+MemID)
GPGPU-Sim uArch: Memory nodes start from ID: 60
GPGPU-Sim uArch:    0   1   2   3   4   5   6   7
GPGPU-Sim uArch:    8   9  10  11  12  13  14  15
GPGPU-Sim uArch:   16  17  18  19  20  21  22  23
GPGPU-Sim uArch:   24  25  26  27  28  29  30  31
GPGPU-Sim uArch:   32  33  34  35  36  37  38  39
GPGPU-Sim uArch:   40  41  42  43  44  45  46  47
GPGPU-Sim uArch:   48  49  50  51  52  53  54  55
GPGPU-Sim uArch:   56  57  58  59  60  61  62  63
GPGPU-Sim uArch:   64  65  66  67  68  69  70  71
GPGPU-Sim uArch: performance model initialization complete.
GPGPU-Sim PTX: __cudaRegisterFatBinary found PTX versions for 'main.cu', capability = compute_20
GPGPU-Sim PTX: Loading PTX for main.cu, capability = compute_20
GPGPU-Sim PTX: allocating constant region for "__cudart_i2opi_f" from 0x100 to 0x118 (global memory space) 1
GPGPU-Sim PTX: allocating stack frame region for .local "__cuda___cuda_result_3212" from 0x0 to 0x1c
GPGPU-Sim PTX: allocating stack frame region for .local "__cuda___cuda_result_6040" from 0x80 to 0x9c
GPGPU-Sim PTX: Warning -- ignoring pragma 'nounroll'
GPGPU-Sim PTX: Warning -- ignoring pragma 'nounroll'
GPGPU-Sim PTX: instruction assembly for function '_Z15myfriend_kernelPii'...   done.
GPGPU-Sim PTX: finding reconvergence points for '_Z15myfriend_kernelPii'...
GPGPU-Sim PTX: Finding dominators for '_Z15myfriend_kernelPii'...
GPGPU-Sim PTX: Finding immediate dominators for '_Z15myfriend_kernelPii'...
GPGPU-Sim PTX: Finding postdominators for '_Z15myfriend_kernelPii'...
GPGPU-Sim PTX: Finding immediate postdominators for '_Z15myfriend_kernelPii'...
GPGPU-Sim PTX: pre-decoding instructions for '_Z15myfriend_kernelPii'...
GPGPU-Sim PTX: reconvergence points for _Z15myfriend_kernelPii...
GPGPU-Sim PTX:  1 (potential) branch divergence @  PC=0x018 (_1.ptx:65) @%p1 bra $Lt_0_35586;
GPGPU-Sim PTX:    immediate post dominator      @  PC=0xb30 (_1.ptx:579) ld.param.u64 %rd14, [__cudaparm__Z15myfriend_kernelPii_a];
GPGPU-Sim PTX:  2 (potential) branch divergence @  PC=0x0b0 (_1.ptx:87) @%p3 bra $Lt_0_24578;
GPGPU-Sim PTX:    immediate post dominator      @  PC=0x600 (_1.ptx:338) @!%p2 bra $Lt_0_30210;
GPGPU-Sim PTX:  3 (potential) branch divergence @  PC=0x0c8 (_1.ptx:92) bra.uni $LDWendi___isinff_177_5;
GPGPU-Sim PTX:    immediate post dominator      @  PC=0x600 (_1.ptx:338) @!%p2 bra $Lt_0_30210;
GPGPU-Sim PTX:  4 (potential) branch divergence @  PC=0x0e0 (_1.ptx:97) @!%p4 bra $Lt_0_25090;
GPGPU-Sim PTX:    immediate post dominator      @  PC=0x518 (_1.ptx:297) mov.f32 %f19, %f8;
GPGPU-Sim PTX:  5 (potential) branch divergence @  PC=0x198 (_1.ptx:129) @%p5 bra $Lt_0_26114;
GPGPU-Sim PTX:    immediate post dominator      @  PC=0x1a0 (_1.ptx:132) st.local.u32 [__cuda___cuda_result_3212+24], %r18;
GPGPU-Sim PTX:  6 (potential) branch divergence @  PC=0x218 (_1.ptx:149) @%p6 bra $Lt_0_26626;
GPGPU-Sim PTX:    immediate post dominator      @  PC=0x268 (_1.ptx:165) shr.u32 %r17, %r18, 30;
GPGPU-Sim PTX:  7 (potential) branch divergence @  PC=0x2a0 (_1.ptx:174) @%p7 bra $Lt_0_27394;
GPGPU-Sim PTX:    immediate post dominator      @  PC=0x2e8 (_1.ptx:190) add.u32 %r51, %r17, %r48;
GPGPU-Sim PTX:  8 (potential) branch divergence @  PC=0x2c8 (_1.ptx:181) bra.uni $Lt_0_27138;
GPGPU-Sim PTX:    immediate post dominator      @  PC=0x2e8 (_1.ptx:190) add.u32 %r51, %r17, %r48;
GPGPU-Sim PTX:  9 (potential) branch divergence @  PC=0x320 (_1.ptx:198) @%p9 bra $Lt_0_27650;
GPGPU-Sim PTX:    immediate post dominator      @  PC=0x360 (_1.ptx:213) mov.s32 %r59, %r17;
GPGPU-Sim PTX: 10 (potential) branch divergence @  PC=0x378 (_1.ptx:216) @%p10 bra $Lt_0_35842;
GPGPU-Sim PTX:    immediate post dominator      @  PC=0x3d8 (_1.ptx:240) mul.lo.u32 %r32, %r18, -921707870;
GPGPU-Sim PTX: 11 (potential) branch divergence @  PC=0x3c0 (_1.ptx:231) @%p11 bra $Lt_0_28674;
GPGPU-Sim PTX:    immediate post dominator      @  PC=0x3c8 (_1.ptx:233) bra.uni $Lt_0_28162;
GPGPU-Sim PTX: 12 (potential) branch divergence @  PC=0x3c8 (_1.ptx:233) bra.uni $Lt_0_28162;
GPGPU-Sim PTX:    immediate post dominator      @  PC=0x3d8 (_1.ptx:240) mul.lo.u32 %r32, %r18, -921707870;
GPGPU-Sim PTX: 13 (potential) branch divergence @  PC=0x400 (_1.ptx:246) @%p12 bra $Lt_0_29186;
GPGPU-Sim PTX:    immediate post dominator      @  PC=0x430 (_1.ptx:259) mov.u32 %r69, 0;
GPGPU-Sim PTX: 14 (potential) branch divergence @  PC=0x4a8 (_1.ptx:275) bra.uni $LDWendi___internal_fmad_177_6;
GPGPU-Sim PTX:    immediate post dominator      @  PC=0x518 (_1.ptx:297) mov.f32 %f19, %f8;
GPGPU-Sim PTX: 15 (potential) branch divergence @  PC=0x540 (_1.ptx:302) @%p13 bra $Lt_0_29954;
GPGPU-Sim PTX:    immediate post dominator      @  PC=0x5d0 (_1.ptx:328) neg.f32 %f36, %f29;
GPGPU-Sim PTX: 16 (potential) branch divergence @  PC=0x590 (_1.ptx:314) bra.uni $Lt_0_29698;
GPGPU-Sim PTX:    immediate post dominator      @  PC=0x5d0 (_1.ptx:328) neg.f32 %f36, %f29;
GPGPU-Sim PTX: 17 (potential) branch divergence @  PC=0x600 (_1.ptx:338) @!%p2 bra $Lt_0_30210;
GPGPU-Sim PTX:    immediate post dominator      @  PC=0xae8 (_1.ptx:567) cvt.rn.f32.s32 %f64, %r5;
GPGPU-Sim PTX: 18 (potential) branch divergence @  PC=0x618 (_1.ptx:343) bra.uni $LDWendi___isinff_177_1;
GPGPU-Sim PTX:    immediate post dominator      @  PC=0xae8 (_1.ptx:567) cvt.rn.f32.s32 %f64, %r5;
GPGPU-Sim PTX: 19 (potential) branch divergence @  PC=0x630 (_1.ptx:348) @!%p15 bra $Lt_0_30722;
GPGPU-Sim PTX:    immediate post dominator      @  PC=0xa68 (_1.ptx:548) mov.f32 %f51, %f40;
GPGPU-Sim PTX: 20 (potential) branch divergence @  PC=0x6e8 (_1.ptx:380) @%p16 bra $Lt_0_31746;
GPGPU-Sim PTX:    immediate post dominator      @  PC=0x6f0 (_1.ptx:383) st.local.u32 [__cuda___cuda_result_6040+24], %r90;
GPGPU-Sim PTX: 21 (potential) branch divergence @  PC=0x768 (_1.ptx:400) @%p17 bra $Lt_0_32258;
GPGPU-Sim PTX:    immediate post dominator      @  PC=0x7b8 (_1.ptx:416) shr.u32 %r89, %r90, 30;
GPGPU-Sim PTX: 22 (potential) branch divergence @  PC=0x7f0 (_1.ptx:425) @%p18 bra $Lt_0_33026;
GPGPU-Sim PTX:    immediate post dominator      @  PC=0x838 (_1.ptx:441) add.u32 %r122, %r89, %r119;
GPGPU-Sim PTX: 23 (potential) branch divergence @  PC=0x818 (_1.ptx:432) bra.uni $Lt_0_32770;
GPGPU-Sim PTX:    immediate post dominator      @  PC=0x838 (_1.ptx:441) add.u32 %r122, %r89, %r119;
GPGPU-Sim PTX: 24 (potential) branch divergence @  PC=0x870 (_1.ptx:449) @%p20 bra $Lt_0_33282;
GPGPU-Sim PTX:    immediate post dominator      @  PC=0x8b0 (_1.ptx:464) mov.s32 %r130, %r89;
GPGPU-Sim PTX: 25 (potential) branch divergence @  PC=0x8c8 (_1.ptx:467) @%p21 bra $Lt_0_36098;
GPGPU-Sim PTX:    immediate post dominator      @  PC=0x928 (_1.ptx:491) mul.lo.u32 %r104, %r90, -921707870;
GPGPU-Sim PTX: 26 (potential) branch divergence @  PC=0x910 (_1.ptx:482) @%p22 bra $Lt_0_34306;
GPGPU-Sim PTX:    immediate post dominator      @  PC=0x918 (_1.ptx:484) bra.uni $Lt_0_33794;
GPGPU-Sim PTX: 27 (potential) branch divergence @  PC=0x918 (_1.ptx:484) bra.uni $Lt_0_33794;
GPGPU-Sim PTX:    immediate post dominator      @  PC=0x928 (_1.ptx:491) mul.lo.u32 %r104, %r90, -921707870;
GPGPU-Sim PTX: 28 (potential) branch divergence @  PC=0x950 (_1.ptx:497) @%p23 bra $Lt_0_34818;
GPGPU-Sim PTX:    immediate post dominator      @  PC=0x980 (_1.ptx:510) mov.u32 %r140, 0;
GPGPU-Sim PTX: 29 (potential) branch divergence @  PC=0x9f8 (_1.ptx:526) bra.uni $LDWendi___internal_fmad_177_2;
GPGPU-Sim PTX:    immediate post dominator      @  PC=0xa68 (_1.ptx:548) mov.f32 %f51, %f40;
GPGPU-Sim PTX: 30 (potential) branch divergence @  PC=0xb18 (_1.ptx:573) @%p24 bra $Lt_0_24322;
GPGPU-Sim PTX:    immediate post dominator      @  PC=0xb20 (_1.ptx:574) bra.uni $Lt_0_23810;
GPGPU-Sim PTX: 31 (potential) branch divergence @  PC=0xb20 (_1.ptx:574) bra.uni $Lt_0_23810;
GPGPU-Sim PTX:    immediate post dominator      @  PC=0xb30 (_1.ptx:579) ld.param.u64 %rd14, [__cudaparm__Z15myfriend_kernelPii_a];
GPGPU-Sim PTX: ... end of reconvergence points for _Z15myfriend_kernelPii
GPGPU-Sim PTX: ... done pre-decoding instructions for '_Z15myfriend_kernelPii'.
GPGPU-Sim PTX: allocating stack frame region for .local "__cuda___cuda_result_3284" from 0x0 to 0x1c
GPGPU-Sim PTX: allocating stack frame region for .local "__cuda___cuda_result_60112" from 0x80 to 0x9c
GPGPU-Sim PTX: Warning -- ignoring pragma 'nounroll'
GPGPU-Sim PTX: Warning -- ignoring pragma 'nounroll'
GPGPU-Sim PTX: instruction assembly for function '_Z18mystreaming_kernelPii'...   done.
GPGPU-Sim PTX: finding reconvergence points for '_Z18mystreaming_kernelPii'...
GPGPU-Sim PTX: Finding dominators for '_Z18mystreaming_kernelPii'...
GPGPU-Sim PTX: Finding immediate dominators for '_Z18mystreaming_kernelPii'...
GPGPU-Sim PTX: Finding postdominators for '_Z18mystreaming_kernelPii'...
GPGPU-Sim PTX: Finding immediate postdominators for '_Z18mystreaming_kernelPii'...
GPGPU-Sim PTX: pre-decoding instructions for '_Z18mystreaming_kernelPii'...
GPGPU-Sim PTX: reconvergence points for _Z18mystreaming_kernelPii...
GPGPU-Sim PTX:  1 (potential) branch divergence @  PC=0xb80 (_1.ptx:605) @%p1 bra $Lt_1_35586;
GPGPU-Sim PTX:    immediate post dominator      @  PC=0x1698 (_1.ptx:1119) ld.param.u64 %rd14, [__cudaparm__Z18mystreaming_kernelPii_a];
GPGPU-Sim PTX:  2 (potential) branch divergence @  PC=0xc18 (_1.ptx:627) @%p3 bra $Lt_1_24578;
GPGPU-Sim PTX:    immediate post dominator      @  PC=0x1168 (_1.ptx:878) @!%p2 bra $Lt_1_30210;
GPGPU-Sim PTX:  3 (potential) branch divergence @  PC=0xc30 (_1.ptx:632) bra.uni $LDWendi___isinff_178_5;
GPGPU-Sim PTX:    immediate post dominator      @  PC=0x1168 (_1.ptx:878) @!%p2 bra $Lt_1_30210;
GPGPU-Sim PTX:  4 (potential) branch divergence @  PC=0xc48 (_1.ptx:637) @!%p4 bra $Lt_1_25090;
GPGPU-Sim PTX:    immediate post dominator      @  PC=0x1080 (_1.ptx:837) mov.f32 %f19, %f8;
GPGPU-Sim PTX:  5 (potential) branch divergence @  PC=0xd00 (_1.ptx:669) @%p5 bra $Lt_1_26114;
GPGPU-Sim PTX:    immediate post dominator      @  PC=0xd08 (_1.ptx:672) st.local.u32 [__cuda___cuda_result_3284+24], %r18;
GPGPU-Sim PTX:  6 (potential) branch divergence @  PC=0xd80 (_1.ptx:689) @%p6 bra $Lt_1_26626;
GPGPU-Sim PTX:    immediate post dominator      @  PC=0xdd0 (_1.ptx:705) shr.u32 %r17, %r18, 30;
GPGPU-Sim PTX:  7 (potential) branch divergence @  PC=0xe08 (_1.ptx:714) @%p7 bra $Lt_1_27394;
GPGPU-Sim PTX:    immediate post dominator      @  PC=0xe50 (_1.ptx:730) add.u32 %r51, %r17, %r48;
GPGPU-Sim PTX:  8 (potential) branch divergence @  PC=0xe30 (_1.ptx:721) bra.uni $Lt_1_27138;
GPGPU-Sim PTX:    immediate post dominator      @  PC=0xe50 (_1.ptx:730) add.u32 %r51, %r17, %r48;
GPGPU-Sim PTX:  9 (potential) branch divergence @  PC=0xe88 (_1.ptx:738) @%p9 bra $Lt_1_27650;
GPGPU-Sim PTX:    immediate post dominator      @  PC=0xec8 (_1.ptx:753) mov.s32 %r59, %r17;
GPGPU-Sim PTX: 10 (potential) branch divergence @  PC=0xee0 (_1.ptx:756) @%p10 bra $Lt_1_35842;
GPGPU-Sim PTX:    immediate post dominator      @  PC=0xf40 (_1.ptx:780) mul.lo.u32 %r32, %r18, -921707870;
GPGPU-Sim PTX: 11 (potential) branch divergence @  PC=0xf28 (_1.ptx:771) @%p11 bra $Lt_1_28674;
GPGPU-Sim PTX:    immediate post dominator      @  PC=0xf30 (_1.ptx:773) bra.uni $Lt_1_28162;
GPGPU-Sim PTX: 12 (potential) branch divergence @  PC=0xf30 (_1.ptx:773) bra.uni $Lt_1_28162;
GPGPU-Sim PTX:    immediate post dominator      @  PC=0xf40 (_1.ptx:780) mul.lo.u32 %r32, %r18, -921707870;
GPGPU-Sim PTX: 13 (potential) branch divergence @  PC=0xf68 (_1.ptx:786) @%p12 bra $Lt_1_29186;
GPGPU-Sim PTX:    immediate post dominator      @  PC=0xf98 (_1.ptx:799) mov.u32 %r69, 0;
GPGPU-Sim PTX: 14 (potential) branch divergence @  PC=0x1010 (_1.ptx:815) bra.uni $LDWendi___internal_fmad_178_6;
GPGPU-Sim PTX:    immediate post dominator      @  PC=0x1080 (_1.ptx:837) mov.f32 %f19, %f8;
GPGPU-Sim PTX: 15 (potential) branch divergence @  PC=0x10a8 (_1.ptx:842) @%p13 bra $Lt_1_29954;
GPGPU-Sim PTX:    immediate post dominator      @  PC=0x1138 (_1.ptx:868) neg.f32 %f36, %f29;
GPGPU-Sim PTX: 16 (potential) branch divergence @  PC=0x10f8 (_1.ptx:854) bra.uni $Lt_1_29698;
GPGPU-Sim PTX:    immediate post dominator      @  PC=0x1138 (_1.ptx:868) neg.f32 %f36, %f29;
GPGPU-Sim PTX: 17 (potential) branch divergence @  PC=0x1168 (_1.ptx:878) @!%p2 bra $Lt_1_30210;
GPGPU-Sim PTX:    immediate post dominator      @  PC=0x1650 (_1.ptx:1107) cvt.rn.f32.s32 %f64, %r5;
GPGPU-Sim PTX: 18 (potential) branch divergence @  PC=0x1180 (_1.ptx:883) bra.uni $LDWendi___isinff_178_1;
GPGPU-Sim PTX:    immediate post dominator      @  PC=0x1650 (_1.ptx:1107) cvt.rn.f32.s32 %f64, %r5;
GPGPU-Sim PTX: 19 (potential) branch divergence @  PC=0x1198 (_1.ptx:888) @!%p15 bra $Lt_1_30722;
GPGPU-Sim PTX:    immediate post dominator      @  PC=0x15d0 (_1.ptx:1088) mov.f32 %f51, %f40;
GPGPU-Sim PTX: 20 (potential) branch divergence @  PC=0x1250 (_1.ptx:920) @%p16 bra $Lt_1_31746;
GPGPU-Sim PTX:    immediate post dominator      @  PC=0x1258 (_1.ptx:923) st.local.u32 [__cuda___cuda_result_60112+24], %r90;
GPGPU-Sim PTX: 21 (potential) branch divergence @  PC=0x12d0 (_1.ptx:940) @%p17 bra $Lt_1_32258;
GPGPU-Sim PTX:    immediate post dominator      @  PC=0x1320 (_1.ptx:956) shr.u32 %r89, %r90, 30;
GPGPU-Sim PTX: 22 (potential) branch divergence @  PC=0x1358 (_1.ptx:965) @%p18 bra $Lt_1_33026;
GPGPU-Sim PTX:    immediate post dominator      @  PC=0x13a0 (_1.ptx:981) add.u32 %r122, %r89, %r119;
GPGPU-Sim PTX: 23 (potential) branch divergence @  PC=0x1380 (_1.ptx:972) bra.uni $Lt_1_32770;
GPGPU-Sim PTX:    immediate post dominator      @  PC=0x13a0 (_1.ptx:981) add.u32 %r122, %r89, %r119;
GPGPU-Sim PTX: 24 (potential) branch divergence @  PC=0x13d8 (_1.ptx:989) @%p20 bra $Lt_1_33282;
GPGPU-Sim PTX:    immediate post dominator      @  PC=0x1418 (_1.ptx:1004) mov.s32 %r130, %r89;
GPGPU-Sim PTX: 25 (potential) branch divergence @  PC=0x1430 (_1.ptx:1007) @%p21 bra $Lt_1_36098;
GPGPU-Sim PTX:    immediate post dominator      @  PC=0x1490 (_1.ptx:1031) mul.lo.u32 %r104, %r90, -921707870;
GPGPU-Sim PTX: 26 (potential) branch divergence @  PC=0x1478 (_1.ptx:1022) @%p22 bra $Lt_1_34306;
GPGPU-Sim PTX:    immediate post dominator      @  PC=0x1480 (_1.ptx:1024) bra.uni $Lt_1_33794;
GPGPU-Sim PTX: 27 (potential) branch divergence @  PC=0x1480 (_1.ptx:1024) bra.uni $Lt_1_33794;
GPGPU-Sim PTX:    immediate post dominator      @  PC=0x1490 (_1.ptx:1031) mul.lo.u32 %r104, %r90, -921707870;
GPGPU-Sim PTX: 28 (potential) branch divergence @  PC=0x14b8 (_1.ptx:1037) @%p23 bra $Lt_1_34818;
GPGPU-Sim PTX:    immediate post dominator      @  PC=0x14e8 (_1.ptx:1050) mov.u32 %r140, 0;
GPGPU-Sim PTX: 29 (potential) branch divergence @  PC=0x1560 (_1.ptx:1066) bra.uni $LDWendi___internal_fmad_178_2;
GPGPU-Sim PTX:    immediate post dominator      @  PC=0x15d0 (_1.ptx:1088) mov.f32 %f51, %f40;
GPGPU-Sim PTX: 30 (potential) branch divergence @  PC=0x1680 (_1.ptx:1113) @%p24 bra $Lt_1_24322;
GPGPU-Sim PTX:    immediate post dominator      @  PC=0x1688 (_1.ptx:1114) bra.uni $Lt_1_23810;
GPGPU-Sim PTX: 31 (potential) branch divergence @  PC=0x1688 (_1.ptx:1114) bra.uni $Lt_1_23810;
GPGPU-Sim PTX:    immediate post dominator      @  PC=0x1698 (_1.ptx:1119) ld.param.u64 %rd14, [__cudaparm__Z18mystreaming_kernelPii_a];
GPGPU-Sim PTX: ... end of reconvergence points for _Z18mystreaming_kernelPii
GPGPU-Sim PTX: ... done pre-decoding instructions for '_Z18mystreaming_kernelPii'.
GPGPU-Sim PTX: finished parsing EMBEDDED .ptx file _1.ptx
GPGPU-Sim PTX: extracting embedded .ptx to temporary file "_ptx_iUdP3H"
Running: cat _ptx_iUdP3H | sed 's/.version 1.5/.version 1.4/' | sed 's/, texmode_independent//' | sed 's/\(\.extern \.const\[1\] .b8 \w\+\)\[\]/\1\[1\]/' | sed 's/const\[.\]/const\[0\]/g' > _ptx2_OTcskK
GPGPU-Sim PTX: generating ptxinfo using "$CUDA_INSTALL_PATH/bin/ptxas --gpu-name=sm_20 -v _ptx2_OTcskK --output-file  /dev/null 2> _ptx_iUdP3Hinfo"
GPGPU-Sim PTX: Kernel '_Z18mystreaming_kernelPii' : regs=23, lmem=4, smem=0, cmem=124
GPGPU-Sim PTX: Kernel '_Z15myfriend_kernelPii' : regs=23, lmem=4, smem=0, cmem=120
GPGPU-Sim PTX: removing ptxinfo using "rm -f _ptx_iUdP3H _ptx2_OTcskK _ptx_iUdP3Hinfo"
GPGPU-Sim PTX: loading globals with explicit initializers... 
GPGPU-Sim PTX: finished loading globals (0 bytes total).
GPGPU-Sim PTX: loading constants with explicit initializers...  done.
GPGPU-Sim PTX: __cudaRegisterFunction _Z18mystreaming_kernelPii : hostFun 0x0x413d22, fat_cubin_handle = 1
GPGPU-Sim PTX: __cudaRegisterFunction _Z15myfriend_kernelPii : hostFun 0x0x413c82, fat_cubin_handle = 1
GPGPU-Sim PTX: __cudaRegisterFatBinary found PTX versions for 'SPMV/main_spmv.cu', capability = compute_20
GPGPU-Sim PTX: Loading PTX for SPMV/main_spmv.cu, capability = compute_20
GPGPU-Sim PTX: allocating global region for "tex_x_float" from 0x118 to 0x11c (global memory space)
GPGPU-Sim PTX: allocating constant region for "jds_ptr_int" from 0x180 to 0x4fa0 (global memory space) 2
GPGPU-Sim PTX: allocating constant region for "sh_zcnt_int" from 0x5000 to 0x9e20 (global memory space) 3
GPGPU-Sim PTX: instruction assembly for function '_Z16spmv_jds_texturePfPKfPKiS3_S1_S3_i'...   done.
GPGPU-Sim PTX: finding reconvergence points for '_Z16spmv_jds_texturePfPKfPKiS3_S1_S3_i'...
GPGPU-Sim PTX: Finding dominators for '_Z16spmv_jds_texturePfPKfPKiS3_S1_S3_i'...
GPGPU-Sim PTX: Finding immediate dominators for '_Z16spmv_jds_texturePfPKfPKiS3_S1_S3_i'...
GPGPU-Sim PTX: Finding postdominators for '_Z16spmv_jds_texturePfPKfPKiS3_S1_S3_i'...
GPGPU-Sim PTX: Finding immediate postdominators for '_Z16spmv_jds_texturePfPKfPKiS3_S1_S3_i'...
GPGPU-Sim PTX: pre-decoding instructions for '_Z16spmv_jds_texturePfPKfPKiS3_S1_S3_i'...
GPGPU-Sim PTX: reconvergence points for _Z16spmv_jds_texturePfPKfPKiS3_S1_S3_i...
GPGPU-Sim PTX:  1 (potential) branch divergence @  PC=0x1718 (_2.ptx:79) @%p1 bra $Lt_0_3074;
GPGPU-Sim PTX:    immediate post dominator      @  PC=0x1aa8 (_2.ptx:233) exit;
GPGPU-Sim PTX:  2 (potential) branch divergence @  PC=0x1858 (_2.ptx:125) @%p2 bra $Lt_0_4098;
GPGPU-Sim PTX:    immediate post dominator      @  PC=0x1a48 (_2.ptx:217) fma.rn.f32 %f20, %f1, %f7, %f8;
GPGPU-Sim PTX:  3 (potential) branch divergence @  PC=0x18a8 (_2.ptx:138) @%p3 bra $Lt_0_5890;
GPGPU-Sim PTX:    immediate post dominator      @  PC=0x19c0 (_2.ptx:190) mov.u32 %r41, %r27;
GPGPU-Sim PTX:  4 (potential) branch divergence @  PC=0x19a8 (_2.ptx:182) @%p4 bra $Lt_0_4866;
GPGPU-Sim PTX:    immediate post dominator      @  PC=0x19b0 (_2.ptx:184) bra.uni $Lt_0_4354;
GPGPU-Sim PTX:  5 (potential) branch divergence @  PC=0x19b0 (_2.ptx:184) bra.uni $Lt_0_4354;
GPGPU-Sim PTX:    immediate post dominator      @  PC=0x19c0 (_2.ptx:190) mov.u32 %r41, %r27;
GPGPU-Sim PTX:  6 (potential) branch divergence @  PC=0x1a38 (_2.ptx:210) bra.uni $Lt_0_3842;
GPGPU-Sim PTX:    immediate post dominator      @  PC=0x1a48 (_2.ptx:217) fma.rn.f32 %f20, %f1, %f7, %f8;
GPGPU-Sim PTX:  7 (potential) branch divergence @  PC=0x1aa0 (_2.ptx:230) @%p5 bra $Lt_0_3586;
GPGPU-Sim PTX:    immediate post dominator      @  PC=0x1aa8 (_2.ptx:233) exit;
GPGPU-Sim PTX: ... end of reconvergence points for _Z16spmv_jds_texturePfPKfPKiS3_S1_S3_i
GPGPU-Sim PTX: ... done pre-decoding instructions for '_Z16spmv_jds_texturePfPKfPKiS3_S1_S3_i'.
GPGPU-Sim PTX: instruction assembly for function '_Z8spmv_jdsPfPKfPKiS3_S1_S3_i'...   done.
GPGPU-Sim PTX: finding reconvergence points for '_Z8spmv_jdsPfPKfPKiS3_S1_S3_i'...
GPGPU-Sim PTX: Finding dominators for '_Z8spmv_jdsPfPKfPKiS3_S1_S3_i'...
GPGPU-Sim PTX: Finding immediate dominators for '_Z8spmv_jdsPfPKfPKiS3_S1_S3_i'...
GPGPU-Sim PTX: Finding postdominators for '_Z8spmv_jdsPfPKfPKiS3_S1_S3_i'...
GPGPU-Sim PTX: Finding immediate postdominators for '_Z8spmv_jdsPfPKfPKiS3_S1_S3_i'...
GPGPU-Sim PTX: pre-decoding instructions for '_Z8spmv_jdsPfPKfPKiS3_S1_S3_i'...
GPGPU-Sim PTX: reconvergence points for _Z8spmv_jdsPfPKfPKiS3_S1_S3_i...
GPGPU-Sim PTX:  1 (potential) branch divergence @  PC=0x1af8 (_2.ptx:263) @%p1 bra $Lt_1_3074;
GPGPU-Sim PTX:    immediate post dominator      @  PC=0x1e08 (_2.ptx:397) exit;
GPGPU-Sim PTX:  2 (potential) branch divergence @  PC=0x1c10 (_2.ptx:303) @%p2 bra $Lt_1_4098;
GPGPU-Sim PTX:    immediate post dominator      @  PC=0x1da8 (_2.ptx:381) fma.rn.f32 %f6, %f1, %f2, %f3;
GPGPU-Sim PTX:  3 (potential) branch divergence @  PC=0x1c60 (_2.ptx:316) @%p3 bra $Lt_1_5890;
GPGPU-Sim PTX:    immediate post dominator      @  PC=0x1d50 (_2.ptx:363) fma.rn.f32 %f3, %f1, %f2, %f3;
GPGPU-Sim PTX:  4 (potential) branch divergence @  PC=0x1d38 (_2.ptx:354) @%p4 bra $Lt_1_4866;
GPGPU-Sim PTX:    immediate post dominator      @  PC=0x1d40 (_2.ptx:356) bra.uni $Lt_1_4354;
GPGPU-Sim PTX:  5 (potential) branch divergence @  PC=0x1d40 (_2.ptx:356) bra.uni $Lt_1_4354;
GPGPU-Sim PTX:    immediate post dominator      @  PC=0x1d50 (_2.ptx:363) fma.rn.f32 %f3, %f1, %f2, %f3;
GPGPU-Sim PTX:  6 (potential) branch divergence @  PC=0x1d98 (_2.ptx:374) bra.uni $Lt_1_3842;
GPGPU-Sim PTX:    immediate post dominator      @  PC=0x1da8 (_2.ptx:381) fma.rn.f32 %f6, %f1, %f2, %f3;
GPGPU-Sim PTX:  7 (potential) branch divergence @  PC=0x1e00 (_2.ptx:394) @%p5 bra $Lt_1_3586;
GPGPU-Sim PTX:    immediate post dominator      @  PC=0x1e08 (_2.ptx:397) exit;
GPGPU-Sim PTX: ... end of reconvergence points for _Z8spmv_jdsPfPKfPKiS3_S1_S3_i
GPGPU-Sim PTX: ... done pre-decoding instructions for '_Z8spmv_jdsPfPKfPKiS3_S1_S3_i'.
GPGPU-Sim PTX: finished parsing EMBEDDED .ptx file _2.ptx
GPGPU-Sim PTX: extracting embedded .ptx to temporary file "_ptx_BzRmPM"
Running: cat _ptx_BzRmPM | sed 's/.version 1.5/.version 1.4/' | sed 's/, texmode_independent//' | sed 's/\(\.extern \.const\[1\] .b8 \w\+\)\[\]/\1\[1\]/' | sed 's/const\[.\]/const\[0\]/g' > _ptx2_1BajkP
GPGPU-Sim PTX: generating ptxinfo using "$CUDA_INSTALL_PATH/bin/ptxas --gpu-name=sm_20 -v _ptx2_1BajkP --output-file  /dev/null 2> _ptx_BzRmPMinfo"
GPGPU-Sim PTX: Kernel '_Z8spmv_jdsPfPKfPKiS3_S1_S3_i' : regs=22, lmem=0, smem=0, cmem=40092
GPGPU-Sim PTX: Kernel '_Z16spmv_jds_texturePfPKfPKiS3_S1_S3_i' : regs=21, lmem=0, smem=0, cmem=40088
GPGPU-Sim PTX: removing ptxinfo using "rm -f _ptx_BzRmPM _ptx2_1BajkP _ptx_BzRmPMinfo"
GPGPU-Sim PTX: loading globals with explicit initializers... 
GPGPU-Sim PTX: finished loading globals (0 bytes total).
GPGPU-Sim PTX: loading constants with explicit initializers...  done.
GPGPU-Sim PTX: __cudaRegisterFunction _Z8spmv_jdsPfPKfPKiS3_S1_S3_i : hostFun 0x0x4159c3, fat_cubin_handle = 2
GPGPU-Sim PTX: __cudaRegisterFunction _Z16spmv_jds_texturePfPKfPKiS3_S1_S3_i : hostFun 0x0x415808, fat_cubin_handle = 2
GPGPU-Sim PTX: in __cudaRegisterTexture:
GPGPU-Sim PTX:   int dim = 1
GPGPU-Sim PTX:   int norm = 0
GPGPU-Sim PTX:   int ext = 0
GPGPU-Sim PTX:   Execution warning: Not finished implementing "void __cudaRegisterTexture(void**, const textureReference*, const void**, const char*, int, int, int)"
GPGPU-Sim PTX: __cudaRegisterVar: hostVar = 0x6d16e0; deviceAddress = jds_ptr_int; deviceName = jds_ptr_int
GPGPU-Sim PTX: __cudaRegisterVar: Registering const memory space of 20000 bytes
GPGPU-Sim PTX registering constant jds_ptr_int (20000 bytes) to name mapping
GPGPU-Sim PTX: __cudaRegisterVar: hostVar = 0x6d6500; deviceAddress = sh_zcnt_int; deviceName = sh_zcnt_int
GPGPU-Sim PTX: __cudaRegisterVar: Registering const memory space of 20000 bytes
GPGPU-Sim PTX registering constant sh_zcnt_int (20000 bytes) to name mapping
GPGPU-Sim PTX: __cudaRegisterFatBinary found PTX versions for 'RAY/rayTracing.cu', capability = compute_20
GPGPU-Sim PTX: Loading PTX for RAY/rayTracing.cu, capability = compute_20
GPGPU-Sim PTX: allocating stack frame region for .param "__cudaretf__Z18intersectionSphere5Rayon6float3f" from 0x0 to 0x4
GPGPU-Sim PTX: allocating stack frame region for .param "__cudaparmf1__Z18intersectionSphere5Rayon6float3f" from 0x4 to 0x1c
GPGPU-Sim PTX: allocating stack frame region for .param "__cudaparmf2__Z18intersectionSphere5Rayon6float3f" from 0x1c to 0x28
GPGPU-Sim PTX: allocating stack frame region for .param "__cudaparmf3__Z18intersectionSphere5Rayon6float3f" from 0x28 to 0x2c
GPGPU-Sim PTX: allocating stack frame region for .param "__cudaretf__Z16intersectionPlan5Rayon6float3S0_" from 0x0 to 0x4
GPGPU-Sim PTX: allocating stack frame region for .param "__cudaparmf1__Z16intersectionPlan5Rayon6float3S0_" from 0x4 to 0x1c
GPGPU-Sim PTX: allocating stack frame region for .param "__cudaparmf2__Z16intersectionPlan5Rayon6float3S0_" from 0x1c to 0x28
GPGPU-Sim PTX: allocating stack frame region for .param "__cudaparmf3__Z16intersectionPlan5Rayon6float3S0_" from 0x28 to 0x34
GPGPU-Sim PTX: allocating stack frame region for .param "__cudaretf__Z10getNormale6float3S_" from 0x0 to 0xc
GPGPU-Sim PTX: allocating stack frame region for .param "__cudaparmf1__Z10getNormale6float3S_" from 0xc to 0x18
GPGPU-Sim PTX: allocating stack frame region for .param "__cudaparmf2__Z10getNormale6float3S_" from 0x18 to 0x24
GPGPU-Sim PTX: allocating stack frame region for .param "__cudaretf__Z11getNormaleP6float3" from 0x0 to 0xc
GPGPU-Sim PTX: allocating stack frame region for .param "__cudaparmf1__Z11getNormaleP6float3" from 0xc to 0x18
GPGPU-Sim PTX: allocating stack frame region for .param "__cudaretf__Z3mul10matrice3x46float3" from 0x0 to 0xc
GPGPU-Sim PTX: allocating stack frame region for .param "__cudaparmf1__Z3mul10matrice3x46float3" from 0xc to 0x3c
GPGPU-Sim PTX: allocating stack frame region for .param "__cudaparmf2__Z3mul10matrice3x46float3" from 0x3c to 0x48
GPGPU-Sim PTX: allocating stack frame region for .param "__cudaretf__Z3mul10matrice3x46float4" from 0x0 to 0x10
GPGPU-Sim PTX: allocating stack frame region for .param "__cudaparmf1__Z3mul10matrice3x46float4" from 0x10 to 0x40
GPGPU-Sim PTX: allocating stack frame region for .param "__cudaparmf2__Z3mul10matrice3x46float4" from 0x40 to 0x50
GPGPU-Sim PTX: allocating stack frame region for .param "__cudaretf__Z14rgbaFloatToInt6float4" from 0x0 to 0x4
GPGPU-Sim PTX: allocating stack frame region for .param "__cudaparmf1__Z14rgbaFloatToInt6float4" from 0x4 to 0x14
GPGPU-Sim PTX: allocating stack frame region for .param "__cudaretf__Z12notShadowRayP4Node6float3S1_f" from 0x0 to 0x4
GPGPU-Sim PTX: allocating stack frame region for .param "__cudaparmf1__Z12notShadowRayP4Node6float3S1_f" from 0x4 to 0xc
GPGPU-Sim PTX: allocating stack frame region for .param "__cudaparmf2__Z12notShadowRayP4Node6float3S1_f" from 0xc to 0x18
GPGPU-Sim PTX: allocating stack frame region for .param "__cudaparmf3__Z12notShadowRayP4Node6float3S1_f" from 0x18 to 0x24
GPGPU-Sim PTX: allocating stack frame region for .param "__cudaparmf4__Z12notShadowRayP4Node6float3S1_f" from 0x24 to 0x28
GPGPU-Sim PTX: allocating stack frame region for .param "__cudaretf__Z15float2int_pow20f" from 0x0 to 0x4
GPGPU-Sim PTX: allocating stack frame region for .param "__cudaparmf1__Z15float2int_pow20f" from 0x4 to 0x8
GPGPU-Sim PTX: allocating stack frame region for .param "__cudaretf__Z15float2int_pow50f" from 0x0 to 0x4
GPGPU-Sim PTX: allocating stack frame region for .param "__cudaparmf1__Z15float2int_pow50f" from 0x4 to 0x8
GPGPU-Sim PTX: instruction assembly for function '_Z18intersectionSphere5Rayon6float3f'...   done.
GPGPU-Sim PTX: finding reconvergence points for '_Z18intersectionSphere5Rayon6float3f'...
GPGPU-Sim PTX: Finding dominators for '_Z18intersectionSphere5Rayon6float3f'...
GPGPU-Sim PTX: Finding immediate dominators for '_Z18intersectionSphere5Rayon6float3f'...
GPGPU-Sim PTX: Finding postdominators for '_Z18intersectionSphere5Rayon6float3f'...
GPGPU-Sim PTX: Finding immediate postdominators for '_Z18intersectionSphere5Rayon6float3f'...
GPGPU-Sim PTX: pre-decoding instructions for '_Z18intersectionSphere5Rayon6float3f'...
GPGPU-Sim PTX: reconvergence points for _Z18intersectionSphere5Rayon6float3f...
GPGPU-Sim PTX:  1 (potential) branch divergence @  PC=0x1f40 (_3.ptx:114) @%p2 bra $Lt_0_3074;
GPGPU-Sim PTX:    immediate post dominator      @  PC=0x1fb0 (_3.ptx:134) mov.f32 %f39, %f32;
GPGPU-Sim PTX:  2 (potential) branch divergence @  PC=0x1f50 (_3.ptx:116) bra.uni $Lt_0_2818;
GPGPU-Sim PTX:    immediate post dominator      @  PC=0x1fb0 (_3.ptx:134) mov.f32 %f39, %f32;
GPGPU-Sim PTX:  3 (potential) branch divergence @  PC=0x1f70 (_3.ptx:121) @!%p3 bra $Lt_0_3586;
GPGPU-Sim PTX:    immediate post dominator      @  PC=0x1fb0 (_3.ptx:134) mov.f32 %f39, %f32;
GPGPU-Sim PTX:  4 (potential) branch divergence @  PC=0x1f80 (_3.ptx:123) bra.uni $Lt_0_3330;
GPGPU-Sim PTX:    immediate post dominator      @  PC=0x1fb0 (_3.ptx:134) mov.f32 %f39, %f32;
GPGPU-Sim PTX: ... end of reconvergence points for _Z18intersectionSphere5Rayon6float3f
GPGPU-Sim PTX: ... done pre-decoding instructions for '_Z18intersectionSphere5Rayon6float3f'.
GPGPU-Sim PTX: instruction assembly for function '_Z16intersectionPlan5Rayon6float3S0_'...   done.
GPGPU-Sim PTX: finding reconvergence points for '_Z16intersectionPlan5Rayon6float3S0_'...
GPGPU-Sim PTX: Finding dominators for '_Z16intersectionPlan5Rayon6float3S0_'...
GPGPU-Sim PTX: Finding immediate dominators for '_Z16intersectionPlan5Rayon6float3S0_'...
GPGPU-Sim PTX: Finding postdominators for '_Z16intersectionPlan5Rayon6float3S0_'...
GPGPU-Sim PTX: Finding immediate postdominators for '_Z16intersectionPlan5Rayon6float3S0_'...
GPGPU-Sim PTX: pre-decoding instructions for '_Z16intersectionPlan5Rayon6float3S0_'...
GPGPU-Sim PTX: reconvergence points for _Z16intersectionPlan5Rayon6float3S0_...
GPGPU-Sim PTX:  1 (potential) branch divergence @  PC=0x2010 (_3.ptx:155) @!%p1 bra $Lt_1_2050;
GPGPU-Sim PTX:    immediate post dominator      @  PC=0x2058 (_3.ptx:168) mov.f32 %f14, %f9;
GPGPU-Sim PTX:  2 (potential) branch divergence @  PC=0x2020 (_3.ptx:157) bra.uni $Lt_1_1794;
GPGPU-Sim PTX:    immediate post dominator      @  PC=0x2058 (_3.ptx:168) mov.f32 %f14, %f9;
GPGPU-Sim PTX: ... end of reconvergence points for _Z16intersectionPlan5Rayon6float3S0_
GPGPU-Sim PTX: ... done pre-decoding instructions for '_Z16intersectionPlan5Rayon6float3S0_'.
GPGPU-Sim PTX: instruction assembly for function '_Z10getNormale6float3S_'...   done.
GPGPU-Sim PTX: finding reconvergence points for '_Z10getNormale6float3S_'...
GPGPU-Sim PTX: Finding dominators for '_Z10getNormale6float3S_'...
GPGPU-Sim PTX: Finding immediate dominators for '_Z10getNormale6float3S_'...
GPGPU-Sim PTX: Finding postdominators for '_Z10getNormale6float3S_'...
GPGPU-Sim PTX: Finding immediate postdominators for '_Z10getNormale6float3S_'...
GPGPU-Sim PTX: pre-decoding instructions for '_Z10getNormale6float3S_'...
GPGPU-Sim PTX: reconvergence points for _Z10getNormale6float3S_...
GPGPU-Sim PTX: ... end of reconvergence points for _Z10getNormale6float3S_
GPGPU-Sim PTX: ... done pre-decoding instructions for '_Z10getNormale6float3S_'.
GPGPU-Sim PTX: instruction assembly for function '_Z11getNormaleP6float3'...   done.
GPGPU-Sim PTX: finding reconvergence points for '_Z11getNormaleP6float3'...
GPGPU-Sim PTX: Finding dominators for '_Z11getNormaleP6float3'...
GPGPU-Sim PTX: Finding immediate dominators for '_Z11getNormaleP6float3'...
GPGPU-Sim PTX: Finding postdominators for '_Z11getNormaleP6float3'...
GPGPU-Sim PTX: Finding immediate postdominators for '_Z11getNormaleP6float3'...
GPGPU-Sim PTX: pre-decoding instructions for '_Z11getNormaleP6float3'...
GPGPU-Sim PTX: reconvergence points for _Z11getNormaleP6float3...
GPGPU-Sim PTX: ... end of reconvergence points for _Z11getNormaleP6float3
GPGPU-Sim PTX: ... done pre-decoding instructions for '_Z11getNormaleP6float3'.
GPGPU-Sim PTX: instruction assembly for function '_Z3mul10matrice3x46float3'...   done.
GPGPU-Sim PTX: finding reconvergence points for '_Z3mul10matrice3x46float3'...
GPGPU-Sim PTX: Finding dominators for '_Z3mul10matrice3x46float3'...
GPGPU-Sim PTX: Finding immediate dominators for '_Z3mul10matrice3x46float3'...
GPGPU-Sim PTX: Finding postdominators for '_Z3mul10matrice3x46float3'...
GPGPU-Sim PTX: Finding immediate postdominators for '_Z3mul10matrice3x46float3'...
GPGPU-Sim PTX: pre-decoding instructions for '_Z3mul10matrice3x46float3'...
GPGPU-Sim PTX: reconvergence points for _Z3mul10matrice3x46float3...
GPGPU-Sim PTX: ... end of reconvergence points for _Z3mul10matrice3x46float3
GPGPU-Sim PTX: ... done pre-decoding instructions for '_Z3mul10matrice3x46float3'.
GPGPU-Sim PTX: instruction assembly for function '_Z3mul10matrice3x46float4'...   done.
GPGPU-Sim PTX: finding reconvergence points for '_Z3mul10matrice3x46float4'...
GPGPU-Sim PTX: Finding dominators for '_Z3mul10matrice3x46float4'...
GPGPU-Sim PTX: Finding immediate dominators for '_Z3mul10matrice3x46float4'...
GPGPU-Sim PTX: Finding postdominators for '_Z3mul10matrice3x46float4'...
GPGPU-Sim PTX: Finding immediate postdominators for '_Z3mul10matrice3x46float4'...
GPGPU-Sim PTX: pre-decoding instructions for '_Z3mul10matrice3x46float4'...
GPGPU-Sim PTX: reconvergence points for _Z3mul10matrice3x46float4...
GPGPU-Sim PTX: ... end of reconvergence points for _Z3mul10matrice3x46float4
GPGPU-Sim PTX: ... done pre-decoding instructions for '_Z3mul10matrice3x46float4'.
GPGPU-Sim PTX: instruction assembly for function '_Z14rgbaFloatToInt6float4'...   done.
GPGPU-Sim PTX: finding reconvergence points for '_Z14rgbaFloatToInt6float4'...
GPGPU-Sim PTX: Finding dominators for '_Z14rgbaFloatToInt6float4'...
GPGPU-Sim PTX: Finding immediate dominators for '_Z14rgbaFloatToInt6float4'...
GPGPU-Sim PTX: Finding postdominators for '_Z14rgbaFloatToInt6float4'...
GPGPU-Sim PTX: Finding immediate postdominators for '_Z14rgbaFloatToInt6float4'...
GPGPU-Sim PTX: pre-decoding instructions for '_Z14rgbaFloatToInt6float4'...
GPGPU-Sim PTX: reconvergence points for _Z14rgbaFloatToInt6float4...
GPGPU-Sim PTX: ... end of reconvergence points for _Z14rgbaFloatToInt6float4
GPGPU-Sim PTX: ... done pre-decoding instructions for '_Z14rgbaFloatToInt6float4'.
GPGPU-Sim PTX: allocating global region for "cnode" from 0x180 to 0x220 (global memory space)
GPGPU-Sim PTX: instruction assembly for function '_Z12notShadowRayP4Node6float3S1_f'...   done.
GPGPU-Sim PTX: finding reconvergence points for '_Z12notShadowRayP4Node6float3S1_f'...
GPGPU-Sim PTX: Finding dominators for '_Z12notShadowRayP4Node6float3S1_f'...
GPGPU-Sim PTX: Finding immediate dominators for '_Z12notShadowRayP4Node6float3S1_f'...
GPGPU-Sim PTX: Finding postdominators for '_Z12notShadowRayP4Node6float3S1_f'...
GPGPU-Sim PTX: Finding immediate postdominators for '_Z12notShadowRayP4Node6float3S1_f'...
GPGPU-Sim PTX: pre-decoding instructions for '_Z12notShadowRayP4Node6float3S1_f'...
GPGPU-Sim PTX: reconvergence points for _Z12notShadowRayP4Node6float3S1_f...
GPGPU-Sim PTX:  1 (potential) branch divergence @  PC=0x2688 (_3.ptx:432) @%p1 bra $Lt_7_8450;
GPGPU-Sim PTX:    immediate post dominator      @  PC=0x2878 (_3.ptx:520) mov.f32 %f58, 0f00000000;    // 0
GPGPU-Sim PTX:  2 (potential) branch divergence @  PC=0x26a8 (_3.ptx:438) @!%p2 bra $Lt_7_8962;
GPGPU-Sim PTX:    immediate post dominator      @  PC=0x2708 (_3.ptx:457) mov.f32 %f28, %f20;
GPGPU-Sim PTX:  3 (potential) branch divergence @  PC=0x26b8 (_3.ptx:441) bra.uni $Lt_7_8706;
GPGPU-Sim PTX:    immediate post dominator      @  PC=0x2708 (_3.ptx:457) mov.f32 %f28, %f20;
GPGPU-Sim PTX:  4 (potential) branch divergence @  PC=0x2710 (_3.ptx:458) bra.uni $Lt_7_8194;
GPGPU-Sim PTX:    immediate post dominator      @  PC=0x2878 (_3.ptx:520) mov.f32 %f58, 0f00000000;    // 0
GPGPU-Sim PTX:  5 (potential) branch divergence @  PC=0x2800 (_3.ptx:491) @%p5 bra $Lt_7_9474;
GPGPU-Sim PTX:    immediate post dominator      @  PC=0x2870 (_3.ptx:516) mov.f32 %f28, %f51;
GPGPU-Sim PTX:  6 (potential) branch divergence @  PC=0x2810 (_3.ptx:494) bra.uni $Lt_7_9730;
GPGPU-Sim PTX:    immediate post dominator      @  PC=0x2870 (_3.ptx:516) mov.f32 %f28, %f51;
GPGPU-Sim PTX:  7 (potential) branch divergence @  PC=0x2830 (_3.ptx:500) @!%p6 bra $Lt_7_9986;
GPGPU-Sim PTX:    immediate post dominator      @  PC=0x2870 (_3.ptx:516) mov.f32 %f28, %f51;
GPGPU-Sim PTX:  8 (potential) branch divergence @  PC=0x2840 (_3.ptx:503) bra.uni $Lt_7_9730;
GPGPU-Sim PTX:    immediate post dominator      @  PC=0x2870 (_3.ptx:516) mov.f32 %f28, %f51;
GPGPU-Sim PTX:  9 (potential) branch divergence @  PC=0x2888 (_3.ptx:522) @!%p7 bra $Lt_7_10242;
GPGPU-Sim PTX:    immediate post dominator      @  PC=0x2938 (_3.ptx:550) add.s32 %r1, %r1, 1;
GPGPU-Sim PTX: 10 (potential) branch divergence @  PC=0x2928 (_3.ptx:543) @!%p8 bra $Lt_7_10242;
GPGPU-Sim PTX:    immediate post dominator      @  PC=0x2938 (_3.ptx:550) add.s32 %r1, %r1, 1;
GPGPU-Sim PTX: 11 (potential) branch divergence @  PC=0x2958 (_3.ptx:554) @%p9 bra $Lt_7_10754;
GPGPU-Sim PTX:    immediate post dominator      @  PC=0x29b0 (_3.ptx:569) selp.s32 %r10, 1, 0, %p11;
GPGPU-Sim PTX: 12 (potential) branch divergence @  PC=0x2980 (_3.ptx:560) @%p10 bra $L_7_7170;
GPGPU-Sim PTX:    immediate post dominator      @  PC=0x29b0 (_3.ptx:569) selp.s32 %r10, 1, 0, %p11;
GPGPU-Sim PTX: 13 (potential) branch divergence @  PC=0x2988 (_3.ptx:561) bra.uni $L_7_7938;
GPGPU-Sim PTX:    immediate post dominator      @  PC=0x29b0 (_3.ptx:569) selp.s32 %r10, 1, 0, %p11;
GPGPU-Sim PTX: ... end of reconvergence points for _Z12notShadowRayP4Node6float3S1_f
GPGPU-Sim PTX: ... done pre-decoding instructions for '_Z12notShadowRayP4Node6float3S1_f'.
GPGPU-Sim PTX: instruction assembly for function '_Z15float2int_pow20f'...   done.
GPGPU-Sim PTX: finding reconvergence points for '_Z15float2int_pow20f'...
GPGPU-Sim PTX: Finding dominators for '_Z15float2int_pow20f'...
GPGPU-Sim PTX: Finding immediate dominators for '_Z15float2int_pow20f'...
GPGPU-Sim PTX: Finding postdominators for '_Z15float2int_pow20f'...
GPGPU-Sim PTX: Finding immediate postdominators for '_Z15float2int_pow20f'...
GPGPU-Sim PTX: pre-decoding instructions for '_Z15float2int_pow20f'...
GPGPU-Sim PTX: reconvergence points for _Z15float2int_pow20f...
GPGPU-Sim PTX: ... end of reconvergence points for _Z15float2int_pow20f
GPGPU-Sim PTX: ... done pre-decoding instructions for '_Z15float2int_pow20f'.
GPGPU-Sim PTX: instruction assembly for function '_Z15float2int_pow50f'...   done.
GPGPU-Sim PTX: finding reconvergence points for '_Z15float2int_pow50f'...
GPGPU-Sim PTX: Finding dominators for '_Z15float2int_pow50f'...
GPGPU-Sim PTX: Finding immediate dominators for '_Z15float2int_pow50f'...
GPGPU-Sim PTX: Finding postdominators for '_Z15float2int_pow50f'...
GPGPU-Sim PTX: Finding immediate postdominators for '_Z15float2int_pow50f'...
GPGPU-Sim PTX: pre-decoding instructions for '_Z15float2int_pow50f'...
GPGPU-Sim PTX: reconvergence points for _Z15float2int_pow50f...
GPGPU-Sim PTX: ... end of reconvergence points for _Z15float2int_pow50f
GPGPU-Sim PTX: ... done pre-decoding instructions for '_Z15float2int_pow50f'.
GPGPU-Sim PTX: allocating constant region for "MView" from 0x280 to 0x2b0 (global memory space) 4
GPGPU-Sim PTX: allocating stack frame region for .local "__cuda___cuda_local_var_40945_9_non_const_pile_32240" from 0x0 to 0x50
GPGPU-Sim PTX: instruction assembly for function '_Z6renderPjP4Nodejjff'...   done.
GPGPU-Sim PTX: finding reconvergence points for '_Z6renderPjP4Nodejjff'...
GPGPU-Sim PTX: Finding dominators for '_Z6renderPjP4Nodejjff'...
GPGPU-Sim PTX: Finding immediate dominators for '_Z6renderPjP4Nodejjff'...
GPGPU-Sim PTX: Finding postdominators for '_Z6renderPjP4Nodejjff'...
GPGPU-Sim PTX: Finding immediate postdominators for '_Z6renderPjP4Nodejjff'...
GPGPU-Sim PTX: pre-decoding instructions for '_Z6renderPjP4Nodejjff'...
GPGPU-Sim PTX: reconvergence points for _Z6renderPjP4Nodejjff...
GPGPU-Sim PTX:  1 (potential) branch divergence @  PC=0x2e00 (_3.ptx:746) @%p1 bra $Lt_10_44034;
GPGPU-Sim PTX:    immediate post dominator      @  PC=0x43c0 (_3.ptx:1652) exit;
GPGPU-Sim PTX:  2 (potential) branch divergence @  PC=0x3078 (_3.ptx:835) @%p2 bra $Lt_10_45570;
GPGPU-Sim PTX:    immediate post dominator      @  PC=0x3208 (_3.ptx:910) mov.f32 %f108, 0f00000000;   // 0
GPGPU-Sim PTX:  3 (potential) branch divergence @  PC=0x3098 (_3.ptx:841) @!%p3 bra $Lt_10_46082;
GPGPU-Sim PTX:    immediate post dominator      @  PC=0x30e0 (_3.ptx:857) mov.f32 %f87, %f82;
GPGPU-Sim PTX:  4 (potential) branch divergence @  PC=0x30a8 (_3.ptx:844) bra.uni $Lt_10_45826;
GPGPU-Sim PTX:    immediate post dominator      @  PC=0x30e0 (_3.ptx:857) mov.f32 %f87, %f82;
GPGPU-Sim PTX:  5 (potential) branch divergence @  PC=0x30e8 (_3.ptx:858) bra.uni $Lt_10_45314;
GPGPU-Sim PTX:    immediate post dominator      @  PC=0x3208 (_3.ptx:910) mov.f32 %f108, 0f00000000;   // 0
GPGPU-Sim PTX:  6 (potential) branch divergence @  PC=0x3190 (_3.ptx:882) @%p6 bra $Lt_10_46594;
GPGPU-Sim PTX:    immediate post dominator      @  PC=0x3200 (_3.ptx:907) mov.f32 %f87, %f101;
GPGPU-Sim PTX:  7 (potential) branch divergence @  PC=0x31a0 (_3.ptx:885) bra.uni $Lt_10_46850;
GPGPU-Sim PTX:    immediate post dominator      @  PC=0x3200 (_3.ptx:907) mov.f32 %f87, %f101;
GPGPU-Sim PTX:  8 (potential) branch divergence @  PC=0x31c0 (_3.ptx:891) @!%p7 bra $Lt_10_47106;
GPGPU-Sim PTX:    immediate post dominator      @  PC=0x3200 (_3.ptx:907) mov.f32 %f87, %f101;
GPGPU-Sim PTX:  9 (potential) branch divergence @  PC=0x31d0 (_3.ptx:894) bra.uni $Lt_10_46850;
GPGPU-Sim PTX:    immediate post dominator      @  PC=0x3200 (_3.ptx:907) mov.f32 %f87, %f101;
GPGPU-Sim PTX: 10 (potential) branch divergence @  PC=0x3248 (_3.ptx:918) @%p8 bra $Lt_10_47362;
GPGPU-Sim PTX:    immediate post dominator      @  PC=0x3260 (_3.ptx:926) add.s32 %r25, %r25, 1;
GPGPU-Sim PTX: 11 (potential) branch divergence @  PC=0x3280 (_3.ptx:930) @%p9 bra $Lt_10_45058;
GPGPU-Sim PTX:    immediate post dominator      @  PC=0x3288 (_3.ptx:932) mov.f32 %f109, 0f00000000;   // 0
GPGPU-Sim PTX: 12 (potential) branch divergence @  PC=0x32d0 (_3.ptx:941) @%p10 bra $Lt_10_48130;
GPGPU-Sim PTX:    immediate post dominator      @  PC=0x4190 (_3.ptx:1572) add.s32 %r23, %r23, 1;
GPGPU-Sim PTX: 13 (potential) branch divergence @  PC=0x3380 (_3.ptx:967) @%p11 bra $Lt_10_48898;
GPGPU-Sim PTX:    immediate post dominator      @  PC=0x3408 (_3.ptx:990) sub.f32 %f136, %f21, %f119;
GPGPU-Sim PTX: 14 (potential) branch divergence @  PC=0x33a0 (_3.ptx:973) bra.uni $Lt_10_48642;
GPGPU-Sim PTX:    immediate post dominator      @  PC=0x3408 (_3.ptx:990) sub.f32 %f136, %f21, %f119;
GPGPU-Sim PTX: 15 (potential) branch divergence @  PC=0x3480 (_3.ptx:1005) @!%p12 bra $Lt_10_49410;
GPGPU-Sim PTX:    immediate post dominator      @  PC=0x34c0 (_3.ptx:1020) mov.f32 %f153, 0f3d4ccccd;   // 0.05
GPGPU-Sim PTX: 16 (potential) branch divergence @  PC=0x34a0 (_3.ptx:1011) bra.uni $Lt_10_49154;
GPGPU-Sim PTX:    immediate post dominator      @  PC=0x34c0 (_3.ptx:1020) mov.f32 %f153, 0f3d4ccccd;   // 0.05
GPGPU-Sim PTX: 17 (potential) branch divergence @  PC=0x35c8 (_3.ptx:1054) @!%p13 bra $Lt_10_58114;
GPGPU-Sim PTX:    immediate post dominator      @  PC=0x40d0 (_3.ptx:1543) add.f32 %f399, %f126, %f126;
GPGPU-Sim PTX: 18 (potential) branch divergence @  PC=0x3610 (_3.ptx:1068) @%p14 bra $Lt_10_49922;
GPGPU-Sim PTX:    immediate post dominator      @  PC=0x3800 (_3.ptx:1157) mov.f32 %f221, 0f00000000;   // 0
GPGPU-Sim PTX: 19 (potential) branch divergence @  PC=0x3630 (_3.ptx:1074) @!%p15 bra $Lt_10_50434;
GPGPU-Sim PTX:    immediate post dominator      @  PC=0x3688 (_3.ptx:1093) mov.f32 %f190, %f183;
GPGPU-Sim PTX: 20 (potential) branch divergence @  PC=0x3640 (_3.ptx:1077) bra.uni $Lt_10_50178;
GPGPU-Sim PTX:    immediate post dominator      @  PC=0x3688 (_3.ptx:1093) mov.f32 %f190, %f183;
GPGPU-Sim PTX: 21 (potential) branch divergence @  PC=0x3690 (_3.ptx:1094) bra.uni $Lt_10_49666;
GPGPU-Sim PTX:    immediate post dominator      @  PC=0x3800 (_3.ptx:1157) mov.f32 %f221, 0f00000000;   // 0
GPGPU-Sim PTX: 22 (potential) branch divergence @  PC=0x3788 (_3.ptx:1128) @%p18 bra $Lt_10_50946;
GPGPU-Sim PTX:    immediate post dominator      @  PC=0x37f8 (_3.ptx:1153) mov.f32 %f190, %f214;
GPGPU-Sim PTX: 23 (potential) branch divergence @  PC=0x3798 (_3.ptx:1131) bra.uni $Lt_10_51202;
GPGPU-Sim PTX:    immediate post dominator      @  PC=0x37f8 (_3.ptx:1153) mov.f32 %f190, %f214;
GPGPU-Sim PTX: 24 (potential) branch divergence @  PC=0x37b8 (_3.ptx:1137) @!%p19 bra $Lt_10_51458;
GPGPU-Sim PTX:    immediate post dominator      @  PC=0x37f8 (_3.ptx:1153) mov.f32 %f190, %f214;
GPGPU-Sim PTX: 25 (potential) branch divergence @  PC=0x37c8 (_3.ptx:1140) bra.uni $Lt_10_51202;
GPGPU-Sim PTX:    immediate post dominator      @  PC=0x37f8 (_3.ptx:1153) mov.f32 %f190, %f214;
GPGPU-Sim PTX: 26 (potential) branch divergence @  PC=0x3810 (_3.ptx:1159) @!%p20 bra $Lt_10_58370;
GPGPU-Sim PTX:    immediate post dominator      @  PC=0x3878 (_3.ptx:1178) add.s32 %r50, %r50, 1;
GPGPU-Sim PTX: 27 (potential) branch divergence @  PC=0x3868 (_3.ptx:1171) @!%p21 bra $Lt_10_58370;
GPGPU-Sim PTX:    immediate post dominator      @  PC=0x3878 (_3.ptx:1178) add.s32 %r50, %r50, 1;
GPGPU-Sim PTX: 28 (potential) branch divergence @  PC=0x3898 (_3.ptx:1182) @%p22 bra $Lt_10_58882;
GPGPU-Sim PTX:    immediate post dominator      @  PC=0x38d0 (_3.ptx:1196) @!%p23 bra $Lt_10_58114;
GPGPU-Sim PTX: 29 (potential) branch divergence @  PC=0x38b0 (_3.ptx:1186) @%p23 bra $L_10_42498;
GPGPU-Sim PTX:    immediate post dominator      @  PC=0x38d0 (_3.ptx:1196) @!%p23 bra $Lt_10_58114;
GPGPU-Sim PTX: 30 (potential) branch divergence @  PC=0x38b8 (_3.ptx:1188) bra.uni $L_10_43266;
GPGPU-Sim PTX:    immediate post dominator      @  PC=0x38d0 (_3.ptx:1196) @!%p23 bra $Lt_10_58114;
GPGPU-Sim PTX: 31 (potential) branch divergence @  PC=0x38d0 (_3.ptx:1196) @!%p23 bra $Lt_10_58114;
GPGPU-Sim PTX:    immediate post dominator      @  PC=0x40d0 (_3.ptx:1543) add.f32 %f399, %f126, %f126;
GPGPU-Sim PTX: 32 (potential) branch divergence @  PC=0x3a18 (_3.ptx:1241) @!%p24 bra $Lt_10_51714;
GPGPU-Sim PTX:    immediate post dominator      @  PC=0x4090 (_3.ptx:1529) mov.f32 %f394, 0f3f4ccccd;   // 0.8
GPGPU-Sim PTX: 33 (potential) branch divergence @  PC=0x3a28 (_3.ptx:1245) bra.uni $LDWendi___isnanf_187_1;
GPGPU-Sim PTX:    immediate post dominator      @  PC=0x4090 (_3.ptx:1529) mov.f32 %f394, 0f3f4ccccd;   // 0.8
GPGPU-Sim PTX: 34 (potential) branch divergence @  PC=0x3a48 (_3.ptx:1252) @!%p25 bra $Lt_10_7682;
GPGPU-Sim PTX:    immediate post dominator      @  PC=0x4090 (_3.ptx:1529) mov.f32 %f394, 0f3f4ccccd;   // 0.8
GPGPU-Sim PTX: 35 (potential) branch divergence @  PC=0x3a50 (_3.ptx:1254) bra.uni $Lt_10_7938;
GPGPU-Sim PTX:    immediate post dominator      @  PC=0x3a70 (_3.ptx:1264) mov.f32 %f272, 0f7f800000;   // ((1.0F)/(0.0F))
GPGPU-Sim PTX: 36 (potential) branch divergence @  PC=0x3a68 (_3.ptx:1260) bra.uni $LDWendi___isnanf_187_1;
GPGPU-Sim PTX:    immediate post dominator      @  PC=0x4090 (_3.ptx:1529) mov.f32 %f394, 0f3f4ccccd;   // 0.8
GPGPU-Sim PTX: 37 (potential) branch divergence @  PC=0x3a80 (_3.ptx:1266) @!%p26 bra $Lt_10_52226;
GPGPU-Sim PTX:    immediate post dominator      @  PC=0x4090 (_3.ptx:1529) mov.f32 %f394, 0f3f4ccccd;   // 0.8
GPGPU-Sim PTX: 38 (potential) branch divergence @  PC=0x3a90 (_3.ptx:1270) bra.uni $LDWendi___isnanf_187_1;
GPGPU-Sim PTX:    immediate post dominator      @  PC=0x4090 (_3.ptx:1529) mov.f32 %f394, 0f3f4ccccd;   // 0.8
GPGPU-Sim PTX: 39 (potential) branch divergence @  PC=0x3aa8 (_3.ptx:1275) @!%p27 bra $Lt_10_52738;
GPGPU-Sim PTX:    immediate post dominator      @  PC=0x4090 (_3.ptx:1529) mov.f32 %f394, 0f3f4ccccd;   // 0.8
GPGPU-Sim PTX: 40 (potential) branch divergence @  PC=0x3b08 (_3.ptx:1289) bra.uni $LDWendi___isnanf_187_1;
GPGPU-Sim PTX:    immediate post dominator      @  PC=0x4090 (_3.ptx:1529) mov.f32 %f394, 0f3f4ccccd;   // 0.8
GPGPU-Sim PTX: 41 (potential) branch divergence @  PC=0x3b20 (_3.ptx:1294) @!%p29 bra $Lt_10_53250;
GPGPU-Sim PTX:    immediate post dominator      @  PC=0x4090 (_3.ptx:1529) mov.f32 %f394, 0f3f4ccccd;   // 0.8
GPGPU-Sim PTX: 42 (potential) branch divergence @  PC=0x3b70 (_3.ptx:1306) @!%p30 bra $Lt_10_53762;
GPGPU-Sim PTX:    immediate post dominator      @  PC=0x3b90 (_3.ptx:1315) mov.f32 %f268, %f284;
GPGPU-Sim PTX: 43 (potential) branch divergence @  PC=0x3b98 (_3.ptx:1316) bra.uni $LDWendi___isnanf_187_1;
GPGPU-Sim PTX:    immediate post dominator      @  PC=0x4090 (_3.ptx:1529) mov.f32 %f394, 0f3f4ccccd;   // 0.8
GPGPU-Sim PTX: 44 (potential) branch divergence @  PC=0x3bb0 (_3.ptx:1322) @!%p31 bra $Lt_10_59394;
GPGPU-Sim PTX:    immediate post dominator      @  PC=0x4090 (_3.ptx:1529) mov.f32 %f394, 0f3f4ccccd;   // 0.8
GPGPU-Sim PTX: 45 (potential) branch divergence @  PC=0x3bd8 (_3.ptx:1328) @!%p32 bra $Lt_10_59394;
GPGPU-Sim PTX:    immediate post dominator      @  PC=0x4090 (_3.ptx:1529) mov.f32 %f394, 0f3f4ccccd;   // 0.8
GPGPU-Sim PTX: 46 (potential) branch divergence @  PC=0x3bf0 (_3.ptx:1333) bra.uni $LDWendi___isnanf_187_1;
GPGPU-Sim PTX:    immediate post dominator      @  PC=0x4090 (_3.ptx:1529) mov.f32 %f394, 0f3f4ccccd;   // 0.8
GPGPU-Sim PTX: 47 (potential) branch divergence @  PC=0x3c28 (_3.ptx:1344) @%p33 bra $Lt_10_54530;
GPGPU-Sim PTX:    immediate post dominator      @  PC=0x3c70 (_3.ptx:1361) sub.s32 %r64, %r64, 127;
GPGPU-Sim PTX: 48 (potential) branch divergence @  PC=0x3c60 (_3.ptx:1354) bra.uni $Lt_10_54274;
GPGPU-Sim PTX:    immediate post dominator      @  PC=0x3c70 (_3.ptx:1361) sub.s32 %r64, %r64, 127;
GPGPU-Sim PTX: 49 (potential) branch divergence @  PC=0x3ca8 (_3.ptx:1369) @!%p34 bra $Lt_10_54786;
GPGPU-Sim PTX:    immediate post dominator      @  PC=0x3cc8 (_3.ptx:1379) mov.f32 %f302, 0fbf800000;   // -1
GPGPU-Sim PTX: 50 (potential) branch divergence @  PC=0x3f00 (_3.ptx:1459) @%p35 bra $Lt_10_55298;
GPGPU-Sim PTX:    immediate post dominator      @  PC=0x3f28 (_3.ptx:1470) mov.f32 %f367, %f365;
GPGPU-Sim PTX: 51 (potential) branch divergence @  PC=0x3fe8 (_3.ptx:1495) @!%p38 bra $Lt_10_55810;
GPGPU-Sim PTX:    immediate post dominator      @  PC=0x3ff8 (_3.ptx:1502) mov.f32 %f284, %f386;
GPGPU-Sim PTX: 52 (potential) branch divergence @  PC=0x4068 (_3.ptx:1516) @%p39 bra $Lt_10_56322;
GPGPU-Sim PTX:    immediate post dominator      @  PC=0x4088 (_3.ptx:1525) mov.f32 %f268, %f284;
GPGPU-Sim PTX: 53 (potential) branch divergence @  PC=0x41a8 (_3.ptx:1575) @%p40 bra $L_10_42242;
GPGPU-Sim PTX:    immediate post dominator      @  PC=0x41c0 (_3.ptx:1581) sub.s32 %r86, %r24, 1;
GPGPU-Sim PTX: 54 (potential) branch divergence @  PC=0x41b8 (_3.ptx:1578) @%p41 bra $L_10_41474;
GPGPU-Sim PTX:    immediate post dominator      @  PC=0x41c0 (_3.ptx:1581) sub.s32 %r86, %r24, 1;
GPGPU-Sim PTX: 55 (potential) branch divergence @  PC=0x41e0 (_3.ptx:1585) @%p42 bra $Lt_10_56834;
GPGPU-Sim PTX:    immediate post dominator      @  PC=0x42d8 (_3.ptx:1621) ld.global.u32 %r92, [%rd4+0];
GPGPU-Sim PTX: 56 (potential) branch divergence @  PC=0x42d0 (_3.ptx:1618) @%p43 bra $Lt_10_57346;
GPGPU-Sim PTX:    immediate post dominator      @  PC=0x42d8 (_3.ptx:1621) ld.global.u32 %r92, [%rd4+0];
GPGPU-Sim PTX: ... end of reconvergence points for _Z6renderPjP4Nodejjff
GPGPU-Sim PTX: ... done pre-decoding instructions for '_Z6renderPjP4Nodejjff'.
GPGPU-Sim PTX: finished parsing EMBEDDED .ptx file _3.ptx
GPGPU-Sim PTX: extracting embedded .ptx to temporary file "_ptx_3O5IYR"
Running: cat _ptx_3O5IYR | sed 's/.version 1.5/.version 1.4/' | sed 's/, texmode_independent//' | sed 's/\(\.extern \.const\[1\] .b8 \w\+\)\[\]/\1\[1\]/' | sed 's/const\[.\]/const\[0\]/g' > _ptx2_FepbDU
GPGPU-Sim PTX: generating ptxinfo using "$CUDA_INSTALL_PATH/bin/ptxas --gpu-name=sm_20 -v _ptx2_FepbDU --output-file  /dev/null 2> _ptx_3O5IYRinfo"
GPGPU-Sim PTX: Kernel '_Z6renderPjP4Nodejjff' : regs=63, lmem=4, smem=0, cmem=168
GPGPU-Sim PTX: removing ptxinfo using "rm -f _ptx_3O5IYR _ptx2_FepbDU _ptx_3O5IYRinfo"
GPGPU-Sim PTX: loading globals with explicit initializers... 
GPGPU-Sim PTX: finished loading globals (0 bytes total).
GPGPU-Sim PTX: loading constants with explicit initializers...  done.
GPGPU-Sim PTX: __cudaRegisterFunction _Z6renderPjP4Nodejjff : hostFun 0x0x418cf4, fat_cubin_handle = 3
GPGPU-Sim PTX: __cudaRegisterVar: hostVar = 0x6db600; deviceAddress = MView; deviceName = MView
GPGPU-Sim PTX: __cudaRegisterVar: Registering const memory space of 48 bytes
GPGPU-Sim PTX registering constant MView (48 bytes) to name mapping
GPGPU-Sim PTX: __cudaRegisterVar: hostVar = 0x6db640; deviceAddress = cnode; deviceName = cnode
GPGPU-Sim PTX: __cudaRegisterVar: Registering const memory space of 160 bytes
GPGPU-Sim PTX registering constant cnode (160 bytes) to name mapping
GPGPU-Sim PTX: __cudaRegisterFatBinary found PTX versions for 'BP/backprop_cuda.cu', capability = compute_20
GPGPU-Sim PTX: Loading PTX for BP/backprop_cuda.cu, capability = compute_20
GPGPU-Sim PTX: allocating shared region for "__cuda___cuda_local_var_34825_34_non_const_input_node40" from 0x0 to 0x40 (shared memory space)
GPGPU-Sim PTX: allocating shared region for "__cuda___cuda_local_var_34826_34_non_const_weight_matrix104" from 0x80 to 0x480 (shared memory space)
GPGPU-Sim PTX: instruction assembly for function '_Z22bpnn_layerforward_CUDAPfS_S_S_ii'...   done.
GPGPU-Sim PTX: finding reconvergence points for '_Z22bpnn_layerforward_CUDAPfS_S_S_ii'...
GPGPU-Sim PTX: Finding dominators for '_Z22bpnn_layerforward_CUDAPfS_S_S_ii'...
GPGPU-Sim PTX: Finding immediate dominators for '_Z22bpnn_layerforward_CUDAPfS_S_S_ii'...
GPGPU-Sim PTX: Finding postdominators for '_Z22bpnn_layerforward_CUDAPfS_S_S_ii'...
GPGPU-Sim PTX: Finding immediate postdominators for '_Z22bpnn_layerforward_CUDAPfS_S_S_ii'...
GPGPU-Sim PTX: pre-decoding instructions for '_Z22bpnn_layerforward_CUDAPfS_S_S_ii'...
GPGPU-Sim PTX: reconvergence points for _Z22bpnn_layerforward_CUDAPfS_S_S_ii...
GPGPU-Sim PTX:  1 (potential) branch divergence @  PC=0x4410 (_4.ptx:74) @!%p1 bra $Lt_0_3586;
GPGPU-Sim PTX:    immediate post dominator      @  PC=0x4458 (_4.ptx:86) bar.sync 0;
GPGPU-Sim PTX:  2 (potential) branch divergence @  PC=0x4558 (_4.ptx:123) @!%p2 bra $Lt_0_4098;
GPGPU-Sim PTX:    immediate post dominator      @  PC=0x4658 (_4.ptx:166) ld.shared.f32 %f17, [%rd14+0];
GPGPU-Sim PTX:  3 (potential) branch divergence @  PC=0x45b0 (_4.ptx:137) @%p3 bra $Lt_0_4866;
GPGPU-Sim PTX:    immediate post dominator      @  PC=0x4630 (_4.ptx:158) bar.sync 0;
GPGPU-Sim PTX:  4 (potential) branch divergence @  PC=0x4650 (_4.ptx:163) @%p4 bra $Lt_0_4610;
GPGPU-Sim PTX:    immediate post dominator      @  PC=0x4658 (_4.ptx:166) ld.shared.f32 %f17, [%rd14+0];
GPGPU-Sim PTX:  5 (potential) branch divergence @  PC=0x4670 (_4.ptx:170) @!%p1 bra $Lt_0_5634;
GPGPU-Sim PTX:    immediate post dominator      @  PC=0x46d8 (_4.ptx:186) exit;
GPGPU-Sim PTX: ... end of reconvergence points for _Z22bpnn_layerforward_CUDAPfS_S_S_ii
GPGPU-Sim PTX: ... done pre-decoding instructions for '_Z22bpnn_layerforward_CUDAPfS_S_S_ii'.
GPGPU-Sim PTX: instruction assembly for function '_Z24bpnn_adjust_weights_cudaPfiS_iS_S_'...   done.
GPGPU-Sim PTX: finding reconvergence points for '_Z24bpnn_adjust_weights_cudaPfiS_iS_S_'...
GPGPU-Sim PTX: Finding dominators for '_Z24bpnn_adjust_weights_cudaPfiS_iS_S_'...
GPGPU-Sim PTX: Finding immediate dominators for '_Z24bpnn_adjust_weights_cudaPfiS_iS_S_'...
GPGPU-Sim PTX: Finding postdominators for '_Z24bpnn_adjust_weights_cudaPfiS_iS_S_'...
GPGPU-Sim PTX: Finding immediate postdominators for '_Z24bpnn_adjust_weights_cudaPfiS_iS_S_'...
GPGPU-Sim PTX: pre-decoding instructions for '_Z24bpnn_adjust_weights_cudaPfiS_iS_S_'...
GPGPU-Sim PTX: reconvergence points for _Z24bpnn_adjust_weights_cudaPfiS_iS_S_...
GPGPU-Sim PTX:  1 (potential) branch divergence @  PC=0x48f8 (_4.ptx:275) @%p1 bra $Lt_1_1282;
GPGPU-Sim PTX:    immediate post dominator      @  PC=0x49c8 (_4.ptx:305) exit;
GPGPU-Sim PTX: ... end of reconvergence points for _Z24bpnn_adjust_weights_cudaPfiS_iS_S_
GPGPU-Sim PTX: ... done pre-decoding instructions for '_Z24bpnn_adjust_weights_cudaPfiS_iS_S_'.
GPGPU-Sim PTX: finished parsing EMBEDDED .ptx file _4.ptx
GPGPU-Sim PTX: extracting embedded .ptx to temporary file "_ptx_exXyzX"
Running: cat _ptx_exXyzX | sed 's/.version 1.5/.version 1.4/' | sed 's/, texmode_independent//' | sed 's/\(\.extern \.const\[1\] .b8 \w\+\)\[\]/\1\[1\]/' | sed 's/const\[.\]/const\[0\]/g' > _ptx2_5dHXv0
GPGPU-Sim PTX: generating ptxinfo using "$CUDA_INSTALL_PATH/bin/ptxas --gpu-name=sm_20 -v _ptx2_5dHXv0 --output-file  /dev/null 2> _ptx_exXyzXinfo"
GPGPU-Sim PTX: Kernel '_Z24bpnn_adjust_weights_cudaPfiS_iS_S_' : regs=22, lmem=0, smem=0, cmem=84
GPGPU-Sim PTX: Kernel '_Z22bpnn_layerforward_CUDAPfS_S_S_ii' : regs=13, lmem=0, smem=1088, cmem=72
GPGPU-Sim PTX: removing ptxinfo using "rm -f _ptx_exXyzX _ptx2_5dHXv0 _ptx_exXyzXinfo"
GPGPU-Sim PTX: loading globals with explicit initializers... 
GPGPU-Sim PTX: finished loading globals (0 bytes total).
GPGPU-Sim PTX: loading constants with explicit initializers...  done.
GPGPU-Sim PTX: __cudaRegisterFunction _Z24bpnn_adjust_weights_cudaPfiS_iS_S_ : hostFun 0x0x41b2bc, fat_cubin_handle = 4
GPGPU-Sim PTX: __cudaRegisterFunction _Z22bpnn_layerforward_CUDAPfS_S_S_ii : hostFun 0x0x41b134, fat_cubin_handle = 4
GPGPU-Sim PTX: __cudaRegisterFatBinary found PTX versions for 'SAD/main_sad.cu', capability = compute_20
GPGPU-Sim PTX: Loading PTX for SAD/main_sad.cu, capability = compute_20
GPGPU-Sim PTX: allocating shared region for "sad_loc" from 0x0 to 0x0 (shared memory space)
GPGPU-Sim PTX: allocating shared region for "sad_loc_8b" from 0x0 to 0x0 (shared memory space)
GPGPU-Sim PTX: allocating shared region for "frame_loc" from 0x0 to 0x20 (shared memory space)
GPGPU-Sim PTX: allocating global region for "ref" from 0x118 to 0x11c (global memory space)
GPGPU-Sim PTX: instruction assembly for function '_Z11mb_sad_calcPtS_ii'...   done.
GPGPU-Sim PTX: finding reconvergence points for '_Z11mb_sad_calcPtS_ii'...
GPGPU-Sim PTX: Finding dominators for '_Z11mb_sad_calcPtS_ii'...
GPGPU-Sim PTX: Finding immediate dominators for '_Z11mb_sad_calcPtS_ii'...
GPGPU-Sim PTX: Finding postdominators for '_Z11mb_sad_calcPtS_ii'...
GPGPU-Sim PTX: Finding immediate postdominators for '_Z11mb_sad_calcPtS_ii'...
GPGPU-Sim PTX: pre-decoding instructions for '_Z11mb_sad_calcPtS_ii'...
GPGPU-Sim PTX: reconvergence points for _Z11mb_sad_calcPtS_ii...
GPGPU-Sim PTX:  1 (potential) branch divergence @  PC=0x4a10 (_5.ptx:75) @%p1 bra $Lt_0_9730;
GPGPU-Sim PTX:    immediate post dominator      @  PC=0x4bc0 (_5.ptx:134) bar.sync 0;
GPGPU-Sim PTX:  2 (potential) branch divergence @  PC=0x4ab8 (_5.ptx:96) @%p2 bra $Lt_0_9986;
GPGPU-Sim PTX:    immediate post dominator      @  PC=0x4b88 (_5.ptx:124) mov.u64 %rd1, frame_loc;
GPGPU-Sim PTX:  3 (potential) branch divergence @  PC=0x4b90 (_5.ptx:125) bra.uni $Lt_0_9474;
GPGPU-Sim PTX:    immediate post dominator      @  PC=0x4bc0 (_5.ptx:134) bar.sync 0;
GPGPU-Sim PTX:  4 (potential) branch divergence @  PC=0x4c50 (_5.ptx:152) @%p3 bra $Lt_0_10498;
GPGPU-Sim PTX:    immediate post dominator      @  PC=0x5238 (_5.ptx:384) bar.sync 0;
GPGPU-Sim PTX:  5 (potential) branch divergence @  PC=0x4d40 (_5.ptx:184) @%p6 bra $Lt_0_11010;
GPGPU-Sim PTX:    immediate post dominator      @  PC=0x5238 (_5.ptx:384) bar.sync 0;
GPGPU-Sim PTX:  6 (potential) branch divergence @  PC=0x51b8 (_5.ptx:355) @%p8 bra $Lt_0_12290;
GPGPU-Sim PTX:    immediate post dominator      @  PC=0x51c0 (_5.ptx:358) cvt.u64.u32 %rd13, %r96;
GPGPU-Sim PTX:  7 (potential) branch divergence @  PC=0x5208 (_5.ptx:370) @%p9 bra $Lt_0_12802;
GPGPU-Sim PTX:    immediate post dominator      @  PC=0x5220 (_5.ptx:378) add.u32 %r96, %r96, 3;
GPGPU-Sim PTX:  8 (potential) branch divergence @  PC=0x5230 (_5.ptx:380) @%p10 bra $Lt_0_11522;
GPGPU-Sim PTX:    immediate post dominator      @  PC=0x5238 (_5.ptx:384) bar.sync 0;
GPGPU-Sim PTX:  9 (potential) branch divergence @  PC=0x5258 (_5.ptx:388) @%p11 bra $Lt_0_13570;
GPGPU-Sim PTX:    immediate post dominator      @  PC=0x5440 (_5.ptx:457) exit;
GPGPU-Sim PTX: 10 (potential) branch divergence @  PC=0x52d0 (_5.ptx:403) @%p12 bra $Lt_0_14082;
GPGPU-Sim PTX:    immediate post dominator      @  PC=0x5440 (_5.ptx:457) exit;
GPGPU-Sim PTX: 11 (potential) branch divergence @  PC=0x52f0 (_5.ptx:408) @%p13 bra $Lt_0_14594;
GPGPU-Sim PTX:    immediate post dominator      @  PC=0x5440 (_5.ptx:457) exit;
GPGPU-Sim PTX: 12 (potential) branch divergence @  PC=0x5438 (_5.ptx:452) @%p14 bra $Lt_0_15106;
GPGPU-Sim PTX:    immediate post dominator      @  PC=0x5440 (_5.ptx:457) exit;
GPGPU-Sim PTX: ... end of reconvergence points for _Z11mb_sad_calcPtS_ii
GPGPU-Sim PTX: ... done pre-decoding instructions for '_Z11mb_sad_calcPtS_ii'.
GPGPU-Sim PTX: instruction assembly for function '_Z17larger_sad_calc_8Ptii'...   done.
GPGPU-Sim PTX: finding reconvergence points for '_Z17larger_sad_calc_8Ptii'...
GPGPU-Sim PTX: Finding dominators for '_Z17larger_sad_calc_8Ptii'...
GPGPU-Sim PTX: Finding immediate dominators for '_Z17larger_sad_calc_8Ptii'...
GPGPU-Sim PTX: Finding postdominators for '_Z17larger_sad_calc_8Ptii'...
GPGPU-Sim PTX: Finding immediate postdominators for '_Z17larger_sad_calc_8Ptii'...
GPGPU-Sim PTX: pre-decoding instructions for '_Z17larger_sad_calc_8Ptii'...
GPGPU-Sim PTX: reconvergence points for _Z17larger_sad_calc_8Ptii...
GPGPU-Sim PTX:  1 (potential) branch divergence @  PC=0x5468 (_5.ptx:477) @%p1 bra $Lt_1_2050;
GPGPU-Sim PTX:    immediate post dominator      @  PC=0x5588 (_5.ptx:517) cvt.s32.u32 %r26, %tid.x;
GPGPU-Sim PTX:  2 (potential) branch divergence @  PC=0x55a8 (_5.ptx:521) @%p2 bra $Lt_1_2562;
GPGPU-Sim PTX:    immediate post dominator      @  PC=0x57f8 (_5.ptx:608) exit;
GPGPU-Sim PTX:  3 (potential) branch divergence @  PC=0x57f0 (_5.ptx:605) @%p3 bra $Lt_1_3074;
GPGPU-Sim PTX:    immediate post dominator      @  PC=0x57f8 (_5.ptx:608) exit;
GPGPU-Sim PTX: ... end of reconvergence points for _Z17larger_sad_calc_8Ptii
GPGPU-Sim PTX: ... done pre-decoding instructions for '_Z17larger_sad_calc_8Ptii'.
GPGPU-Sim PTX: instruction assembly for function '_Z18larger_sad_calc_16Ptii'...   done.
GPGPU-Sim PTX: finding reconvergence points for '_Z18larger_sad_calc_16Ptii'...
GPGPU-Sim PTX: Finding dominators for '_Z18larger_sad_calc_16Ptii'...
GPGPU-Sim PTX: Finding immediate dominators for '_Z18larger_sad_calc_16Ptii'...
GPGPU-Sim PTX: Finding postdominators for '_Z18larger_sad_calc_16Ptii'...
GPGPU-Sim PTX: Finding immediate postdominators for '_Z18larger_sad_calc_16Ptii'...
GPGPU-Sim PTX: pre-decoding instructions for '_Z18larger_sad_calc_16Ptii'...
GPGPU-Sim PTX: reconvergence points for _Z18larger_sad_calc_16Ptii...
GPGPU-Sim PTX:  1 (potential) branch divergence @  PC=0x5820 (_5.ptx:627) @%p1 bra $Lt_2_1282;
GPGPU-Sim PTX:    immediate post dominator      @  PC=0x5a40 (_5.ptx:708) exit;
GPGPU-Sim PTX:  2 (potential) branch divergence @  PC=0x5a38 (_5.ptx:705) @%p2 bra $Lt_2_1794;
GPGPU-Sim PTX:    immediate post dominator      @  PC=0x5a40 (_5.ptx:708) exit;
GPGPU-Sim PTX: ... end of reconvergence points for _Z18larger_sad_calc_16Ptii
GPGPU-Sim PTX: ... done pre-decoding instructions for '_Z18larger_sad_calc_16Ptii'.
GPGPU-Sim PTX: finished parsing EMBEDDED .ptx file _5.ptx
GPGPU-Sim PTX: extracting embedded .ptx to temporary file "_ptx_W24Nx3"
Running: cat _ptx_W24Nx3 | sed 's/.version 1.5/.version 1.4/' | sed 's/, texmode_independent//' | sed 's/\(\.extern \.const\[1\] .b8 \w\+\)\[\]/\1\[1\]/' | sed 's/const\[.\]/const\[0\]/g' > _ptx2_2DVFz6
GPGPU-Sim PTX: generating ptxinfo using "$CUDA_INSTALL_PATH/bin/ptxas --gpu-name=sm_20 -v _ptx2_2DVFz6 --output-file  /dev/null 2> _ptx_W24Nx3info"
GPGPU-Sim PTX: Kernel '_Z18larger_sad_calc_16Ptii' : regs=16, lmem=0, smem=0, cmem=52
GPGPU-Sim PTX: Kernel '_Z17larger_sad_calc_8Ptii' : regs=16, lmem=0, smem=0, cmem=48
GPGPU-Sim PTX: Kernel '_Z11mb_sad_calcPtS_ii' : regs=32, lmem=0, smem=32, cmem=64
[...]
dram[5]:         0         0         0         0         0         0         0         0         0         0         0         0         0         0         0         0 
total accesses: 0
min_bank_accesses = 0!
min_chip_accesses = 0!
number of total read accesses:
dram[0]:     19303     19316     19681     19272     19320     19438     18595     18412     18514     18440     18264     18593     18985     18805     19114     19332 
dram[1]:     19447     19495     19538     19518     19294     19292     18515     18678     18485     18541     18461     18649     18975     19007     19282     19219 
dram[2]:     19388     19249     19282     19636     19486     19173     18386     18586     18514     18541     18511     18479     18753     19040     19276     19200 
dram[3]:     19573     19316     19523     19601     19316     19262     18717     18573     18573     18496     18653     18554     18928     18948     19182     19224 
dram[4]:     19334     19209     19649     19351     19204     19423     18550     18450     18498     18519     18390     18569     19018     18781     19175     19285 
dram[5]:     19311     19496     19536     19575     19228     19270     18572     18693     18588     18556     18559     18640     18936     18928     19284     19229 
total reads: 1823525
bank skew: 19681/18264 = 1.08
chip skew: 304439/303384 = 1.00
number of total write accesses:
dram[0]:      4627      4616      4609      4605      4619      4601      4688      4695      4715      4708      4726      4725      4763      4749      4771      4770 
dram[1]:      4615      4608      4595      4594      4605      4595      4677      4674      4712      4712      4728      4716      4750      4760      4767      4765 
dram[2]:      4618      4599      4617      4600      4613      4604      4684      4684      4717      4721      4729      4718      4753      4755      4767      4760 
dram[3]:      4621      4611      4605      4605      4608      4603      4686      4693      4711      4727      4735      4719      4750      4749      4764      4760 
dram[4]:      4629      4610      4605      4614      4608      4602      4698      4698      4713      4717      4740      4726      4750      4748      4768      4763 
dram[5]:      4623      4613      4602      4615      4606      4616      4685      4700      4705      4717      4734      4728      4738      4751      4762      4771 
total reads: 449701
bank skew: 4771/4594 = 1.04
chip skew: 74989/74873 = 1.00
average mf latency per bank:
dram[0]:        938       960       965       977       874       905       911       931       864       874       868       894       929       943       960       978
dram[1]:       1064      1063      1082      1079       969      1008      1016      1026       974       984       976       996      1047      1056      1064      1090
dram[2]:        962       988       987       980       916       922       923       932       889       889       912       911       939       952      1002      1010
dram[3]:        951      1008       972      1005       900       925       920       960       890       921       902       921       937       976       998      1025
dram[4]:        961       996       979       990       957       938       931       956       881       907       901       922       941       962      1001      1032
dram[5]:        982       979       988       996       902       914       954       953       892       904       891       894       962       963       987      1006
maximum mf latency per bank:
dram[0]:       7129      5277      6313      4780      6869      5419      6022      6330      6467      4713      6625      6333      6581      7687      4930      7927
dram[1]:       7511      6130      6315      6609      5853      7553      6810      7315      6617      6123      6471      7663      5543      6858      7497      6237
dram[2]:       6055      6006      7082      7603      5149      6070      6592      7045      7355      7256      5025      5495      5099      7281      6357      6925
dram[3]:       7543      6651      5330      5300      6656      4048      7165      7710      6813      8438      5788      7146      8320      5317      5215      7593
dram[4]:       6106      7674      5361      5021      5598      5462      5647      9242      6501      7629      7754      4862      5810      6616      5787      6141
dram[5]:       8015      7963      7270      6515      5448      6708      6217      8766      5761      9051      7360      6587      5131      4119      5975      6939
DRAM[0]: 16 bks, busW=4 BL=8 CL=12, tRRD=2 tCCD=6, tRCD=12 tRAS=28 tRP=12 tRC=40
n_cmd=2307122 n_nop=1049257 n_act=251100 n_pre=251088 n_req=377306 n_req_1=184348 n_req_2=72953 n_req_3=120005 n_rd=606732 n_write=148945 bw_util=0.6532 bw_util_1=0.3196 bw_util_2=0.1256 bw_util_3=0.2081 blp=8.649151 blp_1= 4.936484 blp_2= 2.079632 blp_3= 2.839236
 n_activity=2304431 dram_eff=0.654 dram_eff_1=0.32 dram_eff_2=0.1257 dram_eff_3=0.2083
bk0: 38606a 1146423i bk1: 38626a 1117180i bk2: 39358a 1077768i bk3: 38542a 1054560i bk4: 38640a 1071715i bk5: 38874a 1031253i bk6: 37190a 1010139i bk7: 36816a 980875i bk8: 37024a 1158335i bk9: 36878a 1129668i bk10: 36528a 1132041i bk11: 37186a 1086290i bk12: 37964a 1049369i bk13: 37608a 1017630i bk14: 38228a 988424i bk15: 38664a 939768i 
bw_dist = 0.320	0.126	0.208	0.346	0.001
dram_util_bins: 0 0 0 0 0 0 0 0 0 0
dram_eff_bins: 0 0 0 0 0 0 0 0 0 0
mrqq: max=16 avg=15.3063
DRAM[1]: 16 bks, busW=4 BL=8 CL=12, tRRD=2 tCCD=6, tRCD=12 tRAS=28 tRP=12 tRC=40
n_cmd=2307122 n_nop=1038812 n_act=255421 n_pre=255410 n_req=378212 n_req_1=184044 n_req_2=72925 n_req_3=121243 n_rd=608742 n_write=148737 bw_util=0.6548 bw_util_1=0.319 bw_util_2=0.1256 bw_util_3=0.2102 blp=8.814563 blp_1= 4.960209 blp_2= 2.116863 blp_3= 2.897442
 n_activity=2304442 dram_eff=0.6556 dram_eff_1=0.3194 dram_eff_2=0.1257 dram_eff_3=0.2104
bk0: 38894a 1123209i bk1: 38988a 1086942i bk2: 39076a 1052604i bk3: 39034a 1025556i bk4: 38584a 1055600i bk5: 38582a 1006041i bk6: 37024a 994421i bk7: 37354a 952691i bk8: 36966a 1135617i bk9: 37080a 1099864i bk10: 36920a 1099302i bk11: 37292a 1071134i bk12: 37944a 1029277i bk13: 38012a 982351i bk14: 38564a 966073i bk15: 38428a 924605i 
bw_dist = 0.319	0.126	0.210	0.344	0.001
dram_util_bins: 0 0 0 0 0 0 0 0 0 0
dram_eff_bins: 0 0 0 0 0 0 0 0 0 0
mrqq: max=16 avg=15.6182
DRAM[2]: 16 bks, busW=4 BL=8 CL=12, tRRD=2 tCCD=6, tRCD=12 tRAS=28 tRP=12 tRC=40
n_cmd=2307122 n_nop=1045894 n_act=252713 n_pre=252698 n_req=377372 n_req_1=184226 n_req_2=73133 n_req_3=120013 n_rd=606963 n_write=148854 bw_util=0.6534 bw_util_1=0.3194 bw_util_2=0.1259 bw_util_3=0.2081 blp=8.684336 blp_1= 4.942594 blp_2= 2.098256 blp_3= 2.862270
 n_activity=2304173 dram_eff=0.6542 dram_eff_1=0.3198 dram_eff_2=0.1261 dram_eff_3=0.2083
bk0: 38776a 1139726i bk1: 38498a 1107973i bk2: 38559a 1090219i bk3: 39272a 1040961i bk4: 38970a 1060762i bk5: 38344a 1033214i bk6: 36766a 1014333i bk7: 37160a 969585i bk8: 37028a 1147802i bk9: 37082a 1125617i bk10: 37022a 1108588i bk11: 36954a 1095868i bk12: 37500a 1060363i bk13: 38080a 1000524i bk14: 38552a 977736i bk15: 38400a 940021i 
bw_dist = 0.319	0.126	0.208	0.345	0.001
dram_util_bins: 0 0 0 0 0 0 0 0 0 0
dram_eff_bins: 0 0 0 0 0 0 0 0 0 0
mrqq: max=16 avg=15.2994
DRAM[3]: 16 bks, busW=4 BL=8 CL=12, tRRD=2 tCCD=6, tRCD=12 tRAS=28 tRP=12 tRC=40
n_cmd=2307122 n_nop=1042443 n_act=253495 n_pre=253480 n_req=378295 n_req_1=184157 n_req_2=72900 n_req_3=121238 n_rd=608844 n_write=148860 bw_util=0.6549 bw_util_1=0.3192 bw_util_2=0.1255 bw_util_3=0.2102 blp=8.729876 blp_1= 4.941878 blp_2= 2.085316 blp_3= 2.856747
 n_activity=2304626 dram_eff=0.6557 dram_eff_1=0.3196 dram_eff_2=0.1256 dram_eff_3=0.2104
bk0: 39144a 1130734i bk1: 38630a 1109289i bk2: 39046a 1070878i bk3: 39202a 1034379i bk4: 38632a 1062847i bk5: 38520a 1022660i bk6: 37428a 1003015i bk7: 37142a 950772i bk8: 37144a 1141364i bk9: 36990a 1112589i bk10: 37306a 1111265i bk11: 37108a 1073969i bk12: 37850a 1041804i bk13: 37896a 1007148i bk14: 38362a 987470i bk15: 38444a 940983i 
bw_dist = 0.319	0.126	0.210	0.344	0.001
dram_util_bins: 0 0 0 0 0 0 0 0 0 0
dram_eff_bins: 0 0 0 0 0 0 0 0 0 0
mrqq: max=16 avg=15.3978
DRAM[4]: 16 bks, busW=4 BL=8 CL=12, tRRD=2 tCCD=6, tRCD=12 tRAS=28 tRP=12 tRC=40
n_cmd=2307122 n_nop=1043918 n_act=253744 n_pre=253730 n_req=377297 n_req_1=184329 n_req_2=72957 n_req_3=120011 n_rd=606776 n_write=148954 bw_util=0.6532 bw_util_1=0.3196 bw_util_2=0.1256 bw_util_3=0.2081 blp=8.740409 blp_1= 4.966303 blp_2= 2.101547 blp_3= 2.892681
 n_activity=2304548 dram_eff=0.654 dram_eff_1=0.3199 dram_eff_2=0.1257 dram_eff_3=0.2083
bk0: 38658a 1135262i bk1: 38418a 1100685i bk2: 39296a 1064326i bk3: 38696a 1050586i bk4: 38408a 1060673i bk5: 38846a 1014382i bk6: 37099a 1005027i bk7: 36898a 973205i bk8: 36996a 1147234i bk9: 37038a 1113499i bk10: 36780a 1106537i bk11: 37132a 1075960i bk12: 38035a 1030858i bk13: 37560a 999149i bk14: 38350a 973985i bk15: 38566a 929716i 
bw_dist = 0.320	0.126	0.208	0.346	0.001
dram_util_bins: 0 0 0 0 0 0 0 0 0 0
dram_eff_bins: 0 0 0 0 0 0 0 0 0 0
mrqq: max=16 avg=15.3854
DRAM[5]: 16 bks, busW=4 BL=8 CL=12, tRRD=2 tCCD=6, tRCD=12 tRAS=28 tRP=12 tRC=40
n_cmd=2307122 n_nop=1039214 n_act=255133 n_pre=255122 n_req=378272 n_req_1=184166 n_req_2=72846 n_req_3=121260 n_rd=608763 n_write=148890 bw_util=0.6549 bw_util_1=0.3193 bw_util_2=0.1254 bw_util_3=0.2102 blp=8.784804 blp_1= 4.946585 blp_2= 2.086691 blp_3= 2.899946
 n_activity=2304724 dram_eff=0.6556 dram_eff_1=0.3196 dram_eff_2=0.1255 dram_eff_3=0.2105
bk0: 38620a 1122304i bk1: 38992a 1094638i bk2: 39072a 1062072i bk3: 39150a 1031142i bk4: 38452a 1053958i bk5: 38538a 1026110i bk6: 37142a 991804i bk7: 37378a 952113i bk8: 37174a 1131236i bk9: 37108a 1105341i bk10: 37116a 1096618i bk11: 37280a 1077638i bk12: 37872a 1030339i bk13: 37851a 992632i bk14: 38562a 974413i bk15: 38456a 930693i 
bw_dist = 0.319	0.125	0.210	0.344	0.001
dram_util_bins: 0 0 0 0 0 0 0 0 0 0
dram_eff_bins: 0 0 0 0 0 0 0 0 0 0
mrqq: max=16 avg=15.4498

========= L2 cache stats =========
L2_cache_bank[0]: Access = 182385, Miss = 151795, Miss_rate = 0.832, Pending_hits = 1411, Reservation_fails = 372713
L2_cache_bank[1]: Access = 182091, Miss = 151626, Miss_rate = 0.833, Pending_hits = 1379, Reservation_fails = 427341
L2_cache_bank[2]: Access = 181600, Miss = 152018, Miss_rate = 0.837, Pending_hits = 1527, Reservation_fails = 438883
L2_cache_bank[3]: Access = 181748, Miss = 152417, Miss_rate = 0.839, Pending_hits = 1523, Reservation_fails = 485170
L2_cache_bank[4]: Access = 181682, Miss = 151612, Miss_rate = 0.834, Pending_hits = 1384, Reservation_fails = 377974
L2_cache_bank[5]: Access = 182718, Miss = 151925, Miss_rate = 0.831, Pending_hits = 1492, Reservation_fails = 431217
L2_cache_bank[6]: Access = 181867, Miss = 152483, Miss_rate = 0.838, Pending_hits = 1462, Reservation_fails = 372991
L2_cache_bank[7]: Access = 181482, Miss = 151994, Miss_rate = 0.838, Pending_hits = 1593, Reservation_fails = 428866
L2_cache_bank[8]: Access = 184649, Miss = 151833, Miss_rate = 0.822, Pending_hits = 1430, Reservation_fails = 369929
L2_cache_bank[9]: Access = 181686, Miss = 151605, Miss_rate = 0.834, Pending_hits = 1437, Reservation_fails = 452156
L2_cache_bank[10]: Access = 181933, Miss = 152032, Miss_rate = 0.836, Pending_hits = 1563, Reservation_fails = 383039
L2_cache_bank[11]: Access = 181455, Miss = 152407, Miss_rate = 0.840, Pending_hits = 1514, Reservation_fails = 420074
Cache L2_bank_000:	Size = 65536 B (64 Set x 8-way x 128 byte line)
		Access = 182385, Miss = 151795 (0.832), PendingHit = 1411 (0.00774)
Cache L2_bank_001:	Size = 65536 B (64 Set x 8-way x 128 byte line)
		Access = 182091, Miss = 151626 (0.833), PendingHit = 1379 (0.00757)
Cache L2_bank_002:	Size = 65536 B (64 Set x 8-way x 128 byte line)
		Access = 181600, Miss = 152018 (0.837), PendingHit = 1527 (0.00841)
Cache L2_bank_003:	Size = 65536 B (64 Set x 8-way x 128 byte line)
		Access = 181748, Miss = 152417 (0.839), PendingHit = 1523 (0.00838)
Cache L2_bank_004:	Size = 65536 B (64 Set x 8-way x 128 byte line)
		Access = 181682, Miss = 151612 (0.834), PendingHit = 1384 (0.00762)
Cache L2_bank_005:	Size = 65536 B (64 Set x 8-way x 128 byte line)
		Access = 182718, Miss = 151925 (0.831), PendingHit = 1492 (0.00817)
Cache L2_bank_006:	Size = 65536 B (64 Set x 8-way x 128 byte line)
		Access = 181867, Miss = 152483 (0.838), PendingHit = 1462 (0.00804)
Cache L2_bank_007:	Size = 65536 B (64 Set x 8-way x 128 byte line)
		Access = 181482, Miss = 151994 (0.838), PendingHit = 1593 (0.00878)
Cache L2_bank_008:	Size = 65536 B (64 Set x 8-way x 128 byte line)
		Access = 184649, Miss = 151833 (0.822), PendingHit = 1430 (0.00774)
Cache L2_bank_009:	Size = 65536 B (64 Set x 8-way x 128 byte line)
		Access = 181686, Miss = 151605 (0.834), PendingHit = 1437 (0.00791)
Cache L2_bank_010:	Size = 65536 B (64 Set x 8-way x 128 byte line)
		Access = 181933, Miss = 152032 (0.836), PendingHit = 1563 (0.00859)
Cache L2_bank_011:	Size = 65536 B (64 Set x 8-way x 128 byte line)
		Access = 181455, Miss = 152407 (0.84), PendingHit = 1514 (0.00834)
L2 Cache Total Miss Rate = 0.835
Stream 1: L2 Cache Miss Rate = 0.999
Stream 2: L2 Cache Miss Rate = 0.604
Stream 3: L2 Cache Miss Rate = 0.944
Stream 1: Accesses  = 790396
Stream 1: Misses  = 789863
Stream 2: Accesses  = 703599
Stream 2: Misses  = 424802
Stream 3: Accesses  = 1481697
Stream 3: Misses  = 1398945
Stream 1+2: Accesses  = 1493995
Stream 1+2: Misses  = 1214665
Stream 1+2+3: Accesses  = 2975692
Stream 1+2+3: Misses  = 2613610
Total Accesses  = 2185296
MPKI-CORES
CORE_L2MPKI_0	1.596
CORE_L2MPKI_1	1.596
CORE_L2MPKI_2	1.596
CORE_L2MPKI_3	1.596
CORE_L2MPKI_4	1.596
CORE_L2MPKI_5	1.596
CORE_L2MPKI_6	1.596
CORE_L2MPKI_7	1.596
CORE_L2MPKI_8	1.596
CORE_L2MPKI_9	1.596
CORE_L2MPKI_10	1.597
CORE_L2MPKI_11	1.596
CORE_L2MPKI_12	1.596
CORE_L2MPKI_13	1.595
CORE_L2MPKI_14	1.596
CORE_L2MPKI_15	1.596
CORE_L2MPKI_16	1.596
CORE_L2MPKI_17	1.596
CORE_L2MPKI_18	1.596
CORE_L2MPKI_19	1.596
CORE_L2MPKI_20	3.049
CORE_L2MPKI_21	3.040
CORE_L2MPKI_22	2.985
CORE_L2MPKI_23	3.023
CORE_L2MPKI_24	3.170
CORE_L2MPKI_25	2.931
CORE_L2MPKI_26	3.031
CORE_L2MPKI_27	2.901
CORE_L2MPKI_28	3.024
CORE_L2MPKI_29	3.070
CORE_L2MPKI_30	3.255
CORE_L2MPKI_31	3.122
CORE_L2MPKI_32	2.895
CORE_L2MPKI_33	3.175
CORE_L2MPKI_34	3.087
CORE_L2MPKI_35	3.162
CORE_L2MPKI_36	2.887
CORE_L2MPKI_37	2.946
CORE_L2MPKI_38	2.957
CORE_L2MPKI_39	2.903
CORE_L2MPKI_40	1.858
CORE_L2MPKI_41	1.847
CORE_L2MPKI_42	1.828
CORE_L2MPKI_43	1.888
CORE_L2MPKI_44	1.831
CORE_L2MPKI_45	1.763
CORE_L2MPKI_46	1.845
CORE_L2MPKI_47	1.771
CORE_L2MPKI_48	1.784
CORE_L2MPKI_49	1.740
CORE_L2MPKI_50	1.712
CORE_L2MPKI_51	1.787
CORE_L2MPKI_52	1.755
CORE_L2MPKI_53	1.853
CORE_L2MPKI_54	1.875
CORE_L2MPKI_55	1.831
CORE_L2MPKI_56	1.823
CORE_L2MPKI_57	1.785
CORE_L2MPKI_58	1.763
CORE_L2MPKI_59	1.792
Avg_MPKI_Stream1= 1.596
Avg_MPKI_Stream2= 3.031
Avg_MPKI_Stream3= 1.807
MISSES-CORES
CORE_MISSES_0	39043
CORE_MISSES_1	40714
CORE_MISSES_2	39531
CORE_MISSES_3	39872
CORE_MISSES_4	40302
CORE_MISSES_5	39387
CORE_MISSES_6	39257
CORE_MISSES_7	40306
CORE_MISSES_8	39649
CORE_MISSES_9	39097
CORE_MISSES_10	40470
CORE_MISSES_11	38740
CORE_MISSES_12	39037
CORE_MISSES_13	39356
CORE_MISSES_14	39360
CORE_MISSES_15	39041
CORE_MISSES_16	39642
CORE_MISSES_17	38817
CORE_MISSES_18	39120
CORE_MISSES_19	39122
CORE_MISSES_20	21403
CORE_MISSES_21	21356
CORE_MISSES_22	20423
CORE_MISSES_23	20668
CORE_MISSES_24	20975
CORE_MISSES_25	21405
CORE_MISSES_26	21594
CORE_MISSES_27	22334
CORE_MISSES_28	21553
CORE_MISSES_29	21627
CORE_MISSES_30	21390
CORE_MISSES_31	21487
CORE_MISSES_32	21362
CORE_MISSES_33	21035
CORE_MISSES_34	20663
CORE_MISSES_35	20825
CORE_MISSES_36	21244
CORE_MISSES_37	20933
CORE_MISSES_38	21282
CORE_MISSES_39	21243
CORE_MISSES_40	29370
CORE_MISSES_41	24324
CORE_MISSES_42	33707
CORE_MISSES_43	29838
CORE_MISSES_44	33764
CORE_MISSES_45	27863
CORE_MISSES_46	34020
CORE_MISSES_47	27985
CORE_MISSES_48	32900
CORE_MISSES_49	27507
CORE_MISSES_50	27066
CORE_MISSES_51	28237
CORE_MISSES_52	27733
CORE_MISSES_53	29283
CORE_MISSES_54	29643
CORE_MISSES_55	28939
CORE_MISSES_56	38421
CORE_MISSES_57	32915
CORE_MISSES_58	32517
CORE_MISSES_59	33050
L2_MISSES = 1823747
L2_total_cache_accesses = 2185296
L2_total_cache_misses = 1823747
L2_total_cache_miss_rate = 0.8346
L2_total_cache_pending_hits = 17715
L2_total_cache_reservation_fails = 4960353
L2_total_cache_breakdown:
	L2_cache_stats_breakdown[GLOBAL_ACC_R][HIT] = 77786
	L2_cache_stats_breakdown[GLOBAL_ACC_R][HIT_RESERVED] = 4166
	L2_cache_stats_breakdown[GLOBAL_ACC_R][MISS] = 1277945
	L2_cache_stats_breakdown[GLOBAL_ACC_R][RESERVATION_FAIL] = 3536080
	L2_cache_stats_breakdown[CONST_ACC_R][HIT] = 2091
	L2_cache_stats_breakdown[CONST_ACC_R][HIT_RESERVED] = 212
	L2_cache_stats_breakdown[CONST_ACC_R][MISS] = 328
	L2_cache_stats_breakdown[CONST_ACC_R][RESERVATION_FAIL] = 4195
	L2_cache_stats_breakdown[TEXTURE_ACC_R][HIT] = 255817
	L2_cache_stats_breakdown[TEXTURE_ACC_R][HIT_RESERVED] = 11550
	L2_cache_stats_breakdown[TEXTURE_ACC_R][MISS] = 103623
	L2_cache_stats_breakdown[TEXTURE_ACC_R][RESERVATION_FAIL] = 240923
	L2_cache_stats_breakdown[GLOBAL_ACC_W][HIT] = 6785
	L2_cache_stats_breakdown[GLOBAL_ACC_W][HIT_RESERVED] = 1591
	L2_cache_stats_breakdown[GLOBAL_ACC_W][MISS] = 441702
	L2_cache_stats_breakdown[GLOBAL_ACC_W][RESERVATION_FAIL] = 1169828
	L2_cache_stats_breakdown[INST_ACC_R][HIT] = 1355
	L2_cache_stats_breakdown[INST_ACC_R][HIT_RESERVED] = 196
	L2_cache_stats_breakdown[INST_ACC_R][MISS] = 149
	L2_cache_stats_breakdown[INST_ACC_R][RESERVATION_FAIL] = 9327
L2_cache_data_port_util = 0.066
L2_cache_fill_port_util = 0.000

icnt_total_pkts_mem_to_simt=9119543
icnt_total_pkts_simt_to_mem=3959922
LD_mem_lat_dist  0 0 0 0 0 0 0 0 0 0 0 0 0 0 0 0 0 0 0 0 0 0 0 0 0 0 0
ST_mem_lat_dist  0 0 0 0 0 0 0 0 0 0 0 0 0 0 0 0 0 0 0 0 0 0 0 0 0 0 0
----------------------------Interconnect-DETAILS--------------------------------
Class 0:
Packet latency average = 173.7
	minimum = 6
	maximum = 2853
Network latency average = 110.317
	minimum = 6
	maximum = 2339
Slowest packet = 1681
Flit latency average = 57.2423
	minimum = 6
	maximum = 2339
Slowest flit = 6472336
Fragmentation average = 0.603957
	minimum = 0
	maximum = 629
Injected packet rate average = 0.0347306
	minimum = 0.0156841 (at node 41)
	maximum = 0.105632 (at node 68)
Accepted packet rate average = 0.0347296
	minimum = 0.0156841 (at node 41)
	maximum = 0.105654 (at node 68)
Injected flit rate average = 0.103934
	minimum = 0.0209598 (at node 25)
	maximum = 0.442079 (at node 68)
Accepted flit rate average= 0.103932
	minimum = 0.0681666 (at node 41)
	maximum = 0.190296 (at node 68)
Injected packet length average = 2.99258
Accepted packet length average = 2.99261
Total in-flight flits = 384 (384 measured)
====== Overall Traffic Statistics ======
====== Traffic class 0 ======
Packet latency average = 185.632 (7 samples)
	minimum = 6 (7 samples)
	maximum = 2832.43 (7 samples)
Network latency average = 117.389 (7 samples)
	minimum = 6 (7 samples)
	maximum = 2321.86 (7 samples)
Flit latency average = 60.3524 (7 samples)
	minimum = 6 (7 samples)
	maximum = 2321.86 (7 samples)
Fragmentation average = 0.623583 (7 samples)
	minimum = 0 (7 samples)
	maximum = 602.286 (7 samples)
Injected packet rate average = 0.0349032 (7 samples)
	minimum = 0.0177609 (7 samples)
	maximum = 0.106355 (7 samples)
Accepted packet rate average = 0.034901 (7 samples)
	minimum = 0.0177588 (7 samples)
	maximum = 0.106418 (7 samples)
Injected flit rate average = 0.104433 (7 samples)
	minimum = 0.0200229 (7 samples)
	maximum = 0.446653 (7 samples)
Accepted flit rate average = 0.104429 (7 samples)
	minimum = 0.0686514 (7 samples)
	maximum = 0.190088 (7 samples)
Injected packet size average = 2.99207 (7 samples)
Accepted packet size average = 2.99214 (7 samples)
Hops average = 1 (7 samples)
----------------------------END-of-Interconnect-DETAILS-------------------------
event update
BOTH APPS ARE FINISHED
