

        *** GPGPU-Sim Simulator Version 3.2.2  [build 17315] ***


GPGPU-Sim PTX: simulation mode 0 (can change with PTX_SIM_MODE_FUNC environment variable:
               1=functional simulation only, 0=detailed performance simulator)
GPGPU-Sim: Configuration options:

-network_mode                           1 # Interconnection network mode
-inter_config_file   config_fermi_islip.icnt # Interconnection network config file
-gpgpu_ptx_use_cuobjdump                    0 # Use cuobjdump to extract ptx and sass from binaries
-gpgpu_experimental_lib_support                    0 # Try to extract code from cuda libraries [Broken because of unknown cudaGetExportTable]
-gpgpu_ptx_convert_to_ptxplus                    0 # Convert SASS (native ISA) to ptxplus and run ptxplus
-gpgpu_ptx_force_max_capability                   20 # Force maximum compute capability
-gpgpu_ptx_inst_debug_to_file                    0 # Dump executed instructions' debug information to file
-gpgpu_ptx_inst_debug_file       inst_debug.txt # Executed instructions' debug output file
-gpgpu_ptx_inst_debug_thread_uid                    1 # Thread UID for executed instructions' debug output
-gpgpu_simd_model                       1 # 1 = post-dominator
-gpgpu_shader_core_pipeline              1536:32 # shader core pipeline config, i.e., {<nthread>:<warpsize>}
-gpgpu_tex_cache:l1  4:128:24,L:R:m:N,F:128:4,128:2 # per-shader L1 texture cache  (READ-ONLY) config  {<nsets>:<bsize>:<assoc>,<rep>:<wr>:<alloc>:<wr_alloc>,<mshr>:<N>:<merge>,<mq>:<rf>}
-gpgpu_const_cache:l1 64:64:2,L:R:f:N,A:2:32,4 # per-shader L1 constant memory cache  (READ-ONLY) config  {<nsets>:<bsize>:<assoc>,<rep>:<wr>:<alloc>:<wr_alloc>,<mshr>:<N>:<merge>,<mq>} 
-gpgpu_cache:il1     4:128:4,L:R:f:N,A:2:32,4 # shader L1 instruction cache config  {<nsets>:<bsize>:<assoc>,<rep>:<wr>:<alloc>:<wr_alloc>,<mshr>:<N>:<merge>,<mq>} 
-gpgpu_cache:dl1     32:128:4,L:L:m:N,A:32:8,8 # per-shader L1 data cache config  {<nsets>:<bsize>:<assoc>,<rep>:<wr>:<alloc>:<wr_alloc>,<mshr>:<N>:<merge>,<mq> | none}
-gpgpu_cache:dl1PrefL1                 none # per-shader L1 data cache config  {<nsets>:<bsize>:<assoc>,<rep>:<wr>:<alloc>:<wr_alloc>,<mshr>:<N>:<merge>,<mq> | none}
-gpgpu_cache:dl1PreShared                 none # per-shader L1 data cache config  {<nsets>:<bsize>:<assoc>,<rep>:<wr>:<alloc>:<wr_alloc>,<mshr>:<N>:<merge>,<mq> | none}
-gmem_skip_L1D                          0 # global memory access skip L1D cache (implements -Xptxas -dlcm=cg, default=no skip)
-gpgpu_perfect_mem                      0 # enable perfect memory mode (no cache miss)
-n_regfile_gating_group                    4 # group of lanes that should be read/written together)
-gpgpu_clock_gated_reg_file                    0 # enable clock gated reg file for power calculations
-gpgpu_clock_gated_lanes                    0 # enable clock gated lanes for power calculations
-gpgpu_shader_registers                32768 # Number of registers per shader core. Limits number of concurrent CTAs. (default 8192)
-gpgpu_shader_cta                       8 # Maximum number of concurrent CTAs in shader (default 8)
-gpgpu_n_clusters                      60 # number of processing clusters
-gpgpu_n_cores_per_cluster                    1 # number of simd cores per cluster
-gpgpu_n_cluster_ejection_buffer_size                    8 # number of packets in ejection buffer
-gpgpu_n_ldst_response_buffer_size                    2 # number of response packets in ld/st unit ejection buffer
-gpgpu_shmem_size                   16384 # Size of shared memory per shader core (default 16kB)
-gpgpu_shmem_size                   49152 # Size of shared memory per shader core (default 16kB)
-gpgpu_shmem_size_PrefL1                16384 # Size of shared memory per shader core (default 16kB)
-gpgpu_shmem_size_PrefShared                16384 # Size of shared memory per shader core (default 16kB)
-gpgpu_shmem_num_banks                   32 # Number of banks in the shared memory in each shader core (default 16)
-gpgpu_shmem_limited_broadcast                    0 # Limit shared memory to do one broadcast per cycle (default on)
-gpgpu_shmem_warp_parts                    1 # Number of portions a warp is divided into for shared memory bank conflict check 
-gpgpu_warpdistro_shader                   -1 # Specify which shader core to collect the warp size distribution from
-gpgpu_warp_issue_shader                    0 # Specify which shader core to collect the warp issue distribution from
-gpgpu_local_mem_map                    1 # Mapping from local memory space address to simulated GPU physical address space (default = enabled)
-gpgpu_num_reg_banks                   16 # Number of register banks (default = 8)
-gpgpu_reg_bank_use_warp_id                    0 # Use warp ID in mapping registers to banks (default = off)
-gpgpu_operand_collector_num_units_sp                    6 # number of collector units (default = 4)
-gpgpu_operand_collector_num_units_sfu                    8 # number of collector units (default = 4)
-gpgpu_operand_collector_num_units_mem                    2 # number of collector units (default = 2)
-gpgpu_operand_collector_num_units_gen                    0 # number of collector units (default = 0)
-gpgpu_operand_collector_num_in_ports_sp                    2 # number of collector unit in ports (default = 1)
-gpgpu_operand_collector_num_in_ports_sfu                    1 # number of collector unit in ports (default = 1)
-gpgpu_operand_collector_num_in_ports_mem                    1 # number of collector unit in ports (default = 1)
-gpgpu_operand_collector_num_in_ports_gen                    0 # number of collector unit in ports (default = 0)
-gpgpu_operand_collector_num_out_ports_sp                    2 # number of collector unit in ports (default = 1)
-gpgpu_operand_collector_num_out_ports_sfu                    1 # number of collector unit in ports (default = 1)
-gpgpu_operand_collector_num_out_ports_mem                    1 # number of collector unit in ports (default = 1)
-gpgpu_operand_collector_num_out_ports_gen                    0 # number of collector unit in ports (default = 0)
-gpgpu_coalesce_arch                   13 # Coalescing arch (default = 13, anything else is off for now)
-gpgpu_num_sched_per_core                    2 # Number of warp schedulers per core
-gpgpu_max_insn_issue_per_warp                    1 # Max number of instructions that can be issued per warp in one cycle by scheduler
-gpgpu_simt_core_sim_order                    1 # Select the simulation order of cores in a cluster (0=Fix, 1=Round-Robin)
-gpgpu_pipeline_widths        2,1,1,2,1,1,2 # Pipeline widths ID_OC_SP,ID_OC_SFU,ID_OC_MEM,OC_EX_SP,OC_EX_SFU,OC_EX_MEM,EX_WB
-gpgpu_num_sp_units                     2 # Number of SP units (default=1)
-gpgpu_num_sfu_units                    1 # Number of SF units (default=1)
-gpgpu_num_mem_units                    1 # Number if ldst units (default=1) WARNING: not hooked up to anything
-gpgpu_scheduler                      gto # Scheduler configuration: < lrr | gto | two_level_active > If two_level_active:<num_active_warps>:<inner_prioritization>:<outer_prioritization>For complete list of prioritization values see shader.h enum scheduler_prioritization_typeDefault: gto
-gpgpu_dram_scheduler                    1 # 0 = fifo, 1 = FR-FCFS (defaul)
-gpgpu_dram_partition_queues              8:8:8:8 # i2$:$2d:d2$:$2i
-l2_ideal                               0 # Use a ideal L2 cache that always hit
-gpgpu_cache:dl2     64:128:8,L:B:m:W,A:32:4,4:0,32 # unified banked L2 data cache config  {<nsets>:<bsize>:<assoc>,<rep>:<wr>:<alloc>:<wr_alloc>,<mshr>:<N>:<merge>,<mq>}
-gpgpu_cache:dl2_texture_only                    0 # L2 cache used for texture only
-gpgpu_n_mem                            6 # number of memory modules (e.g. memory controllers) in gpu
-gpgpu_n_sub_partition_per_mchannel                    2 # number of memory subpartition in each memory module
-gpgpu_n_mem_per_ctrlr                    2 # number of memory chips per memory controller
-gpgpu_memlatency_stat                   14 # track and display latency statistics 0x2 enables MC, 0x4 enables queue logs
-gpgpu_frfcfs_dram_sched_queue_size                   16 # 0 = unlimited (default); # entries per chip
-gpgpu_dram_return_queue_size                  116 # 0 = unlimited (default); # entries per chip
-gpgpu_num_groups                       3 # number of containers (application equal partitions)
-gpgpu_mode3                            1 # 3 apps or not
-gpgpu_sms_app1                        10 # core partitioning
-gpgpu_sms_T2                          40 # core partitioning
-gpgpu_dram_buswidth                    4 # default = 4 bytes (8 bytes per cycle at DDR)
-gpgpu_dram_burst_length                    8 # Burst length of each DRAM request (default = 4 data bus cycle)
-dram_data_command_freq_ratio                    4 # Frequency ratio between DRAM data bus and command bus (default = 2 times, i.e. DDR)
-gpgpu_dram_timing_opt nbk=16:CCD=2:RRD=6:RCD=12:RAS=28:RP=12:RC=40: CL=12:WL=4:CDLR=5:WR=12:nbkgrp=4:CCDL=3:RTPL=2 # DRAM timing parameters = {nbk:tCCD:tRRD:tRCD:tRAS:tRP:tRC:CL:WL:tCDLR:tWR:nbkgrp:tCCDL:tRTPL}
-rop_latency                          120 # ROP queue latency (default 85)
-dram_latency                         100 # DRAM latency (default 30)
-gpu_char                               0 # gpu char activated
-gpu_app                                1 # gpu mul app code activated
-gpgpu_mem_addr_mapping dramid@8;00000000.00000000.00000000.00000000.0000RRRR.RRRRRRRR.BBBCCCCB.CCSSSSSS # mapping memory address to dram model {dramid@<start bit>;<memory address map>}
-gpgpu_mem_addr_test                    0 # run sweep test to check address mapping for aliased address
-gpgpu_mem_address_mask                    1 # 0 = old addressing mask, 1 = new addressing mask, 2 = new add. mask + flipped bank sel and chip sel bits
-gpuwattch_xml_file  gpuwattch_gtx480.xml # GPUWattch XML file
-power_simulation_enabled                    0 # Turn on power simulator (1=On, 0=Off)
-power_per_cycle_dump                    0 # Dump detailed power output each cycle
-power_trace_enabled                    0 # produce a file for the power trace (1=On, 0=Off)
-power_trace_zlevel                     6 # Compression level of the power trace output log (0=no comp, 9=highest)
-steady_power_levels_enabled                    0 # produce a file for the steady power levels (1=On, 0=Off)
-steady_state_definition                  8:4 # allowed deviation:number of samples
-gpgpu_max_cycle                        0 # terminates gpu simulation early (0 = no limit)
-gpgpu_max_insn                1000000000 # terminates gpu simulation early (0 = no limit)
-gpgpu_max_cta                          0 # terminates gpu simulation early (0 = no limit)
-gpgpu_runtime_stat                   500 # display runtime statistics such as dram utilization {<freq>:<flag>}
-liveness_message_freq                    1 # Minimum number of seconds between simulation liveness messages (0 = always print)
-gpgpu_flush_l1_cache                    0 # Flush L1 cache at the end of each kernel call
-gpgpu_flush_l2_cache                    0 # Flush L2 cache at the end of each kernel call
-gpgpu_deadlock_detect                    1 # Stop the simulation at deadlock (1=on (default), 0=off)
-gpgpu_ptx_instruction_classification                    0 # if enabled will classify ptx instruction types per kernel (Max 255 kernels now)
-gpgpu_ptx_sim_mode                     0 # Select between Performance (default) or Functional simulation (1)
-gpgpu_clock_domains 700.0:700.0:700.0:924.0 # Clock Domain Frequencies in MhZ {<Core Clock>:<ICNT Clock>:<L2 Clock>:<DRAM Clock>}
-gpgpu_max_concurrent_kernel                    8 # maximum kernels that can run concurrently on GPU
-gpgpu_cflog_interval                    0 # Interval between each snapshot in control flow logger
-visualizer_enabled                     0 # Turn on visualizer output (1=On, 0=Off)
-visualizer_outputfile                 NULL # Specifies the output log file for visualizer
-visualizer_zlevel                      6 # Compression level of the visualizer output log (0=no comp, 9=highest)
-trace_enabled                          0 # Turn on traces
-trace_components                    none # comma seperated list of traces to enable. Complete list found in trace_streams.tup. Default none
-trace_sampling_core                    0 # The core which is printed using CORE_DPRINTF. Default 0
-trace_sampling_memory_partition                   -1 # The memory partition which is printed using MEMPART_DPRINTF. Default -1 (i.e. all)
-enable_ptx_file_line_stats                    1 # Turn on PTX source line statistic profiling. (1 = On)
-ptx_line_stats_filename gpgpu_inst_stats.txt # Output file for PTX source line statistics.
-save_embedded_ptx                      0 # saves ptx files embedded in binary as <n>.ptx
-keep                                   0 # keep intermediate files created by GPGPU-Sim when interfacing with external programs
-gpgpu_ptx_save_converted_ptxplus                    0 # Saved converted ptxplus to a file
-ptx_opcode_latency_int         4,13,4,5,145 # Opcode latencies for integers <ADD,MAX,MUL,MAD,DIV>Default 1,1,19,25,145
-ptx_opcode_latency_fp          4,13,4,5,39 # Opcode latencies for single precision floating points <ADD,MAX,MUL,MAD,DIV>Default 1,1,1,1,30
-ptx_opcode_latency_dp         8,19,8,8,330 # Opcode latencies for double precision floating points <ADD,MAX,MUL,MAD,DIV>Default 8,8,8,8,335
-ptx_opcode_initiation_int            1,2,2,1,8 # Opcode initiation intervals for integers <ADD,MAX,MUL,MAD,DIV>Default 1,1,4,4,32
-ptx_opcode_initiation_fp            1,2,1,1,4 # Opcode initiation intervals for single precision floating points <ADD,MAX,MUL,MAD,DIV>Default 1,1,1,1,5
-ptx_opcode_initiation_dp         8,16,8,8,130 # Opcode initiation intervals for double precision floating points <ADD,MAX,MUL,MAD,DIV>Default 8,8,8,8,130
DRAM Timing Options:
nbk                                    16 # number of banks
CCD                                     2 # column to column delay
RRD                                     6 # minimal delay between activation of rows in different banks
RCD                                    12 # row to column delay
RAS                                    28 # time needed to activate row
RP                                     12 # time needed to precharge (deactivate) row
RC                                     40 # row cycle time
CDLR                                    5 # switching from write to read (changes tWTR)
WR                                     12 # last data-in to row precharge
CL                                     12 # CAS latency
WL                                      4 # Write latency
nbkgrp                                  4 # number of bank groups
CCDL                                    3 # column to column delay between accesses to different bank groups
RTPL                                    2 # read to precharge delay between accesses to different bank groups
Total number of memory sub partition = 12
addr_dec_mask[CHIP]  = 0000000000000000 	high:64 low:0
addr_dec_mask[BK]    = 000000000000e100 	high:16 low:8
addr_dec_mask[ROW]   = 000000000fff0000 	high:28 low:16
addr_dec_mask[COL]   = 0000000000001eff 	high:13 low:0
addr_dec_mask[BURST] = 000000000000003f 	high:6 low:0
sub_partition_id_mask = 0000000000000100
GPGPU-Sim uArch: clock freqs: 700000000.000000:700000000.000000:700000000.000000:924000000.000000
GPGPU-Sim uArch: clock periods: 0.00000000142857142857:0.00000000142857142857:0.00000000142857142857:0.00000000108225108225
*** Initializing Memory Statistics ***
GPGPU-Sim uArch: interconnect node map (shaderID+MemID to icntID)
GPGPU-Sim uArch: Memory nodes ID start from index: 60
GPGPU-Sim uArch:    0   1   2   3   4   5   6   7
GPGPU-Sim uArch:    8   9  10  11  12  13  14  15
GPGPU-Sim uArch:   16  17  18  19  20  21  22  23
GPGPU-Sim uArch:   24  25  26  27  28  29  30  31
GPGPU-Sim uArch:   32  33  34  35  36  37  38  39
GPGPU-Sim uArch:   40  41  42  43  44  45  46  47
GPGPU-Sim uArch:   48  49  50  51  52  53  54  55
GPGPU-Sim uArch:   56  57  58  59  60  61  62  63
GPGPU-Sim uArch:   64  65  66  67  68  69  70  71
GPGPU-Sim uArch: interconnect node reverse map (icntID to shaderID+MemID)
GPGPU-Sim uArch: Memory nodes start from ID: 60
GPGPU-Sim uArch:    0   1   2   3   4   5   6   7
GPGPU-Sim uArch:    8   9  10  11  12  13  14  15
GPGPU-Sim uArch:   16  17  18  19  20  21  22  23
GPGPU-Sim uArch:   24  25  26  27  28  29  30  31
GPGPU-Sim uArch:   32  33  34  35  36  37  38  39
GPGPU-Sim uArch:   40  41  42  43  44  45  46  47
GPGPU-Sim uArch:   48  49  50  51  52  53  54  55
GPGPU-Sim uArch:   56  57  58  59  60  61  62  63
GPGPU-Sim uArch:   64  65  66  67  68  69  70  71
GPGPU-Sim uArch: performance model initialization complete.
GPGPU-Sim PTX: __cudaRegisterFatBinary found PTX versions for 'main.cu', capability = compute_20
GPGPU-Sim PTX: Loading PTX for main.cu, capability = compute_20
GPGPU-Sim PTX: allocating constant region for "__cudart_i2opi_f" from 0x100 to 0x118 (global memory space) 1
GPGPU-Sim PTX: allocating stack frame region for .local "__cuda___cuda_result_3212" from 0x0 to 0x1c
GPGPU-Sim PTX: allocating stack frame region for .local "__cuda___cuda_result_6040" from 0x80 to 0x9c
GPGPU-Sim PTX: Warning -- ignoring pragma 'nounroll'
GPGPU-Sim PTX: Warning -- ignoring pragma 'nounroll'
GPGPU-Sim PTX: instruction assembly for function '_Z15myfriend_kernelPii'...   done.
GPGPU-Sim PTX: finding reconvergence points for '_Z15myfriend_kernelPii'...
GPGPU-Sim PTX: Finding dominators for '_Z15myfriend_kernelPii'...
GPGPU-Sim PTX: Finding immediate dominators for '_Z15myfriend_kernelPii'...
GPGPU-Sim PTX: Finding postdominators for '_Z15myfriend_kernelPii'...
GPGPU-Sim PTX: Finding immediate postdominators for '_Z15myfriend_kernelPii'...
GPGPU-Sim PTX: pre-decoding instructions for '_Z15myfriend_kernelPii'...
GPGPU-Sim PTX: reconvergence points for _Z15myfriend_kernelPii...
GPGPU-Sim PTX:  1 (potential) branch divergence @  PC=0x018 (_1.ptx:65) @%p1 bra $Lt_0_35586;
GPGPU-Sim PTX:    immediate post dominator      @  PC=0xb30 (_1.ptx:579) ld.param.u64 %rd14, [__cudaparm__Z15myfriend_kernelPii_a];
GPGPU-Sim PTX:  2 (potential) branch divergence @  PC=0x0b0 (_1.ptx:87) @%p3 bra $Lt_0_24578;
GPGPU-Sim PTX:    immediate post dominator      @  PC=0x600 (_1.ptx:338) @!%p2 bra $Lt_0_30210;
GPGPU-Sim PTX:  3 (potential) branch divergence @  PC=0x0c8 (_1.ptx:92) bra.uni $LDWendi___isinff_177_5;
GPGPU-Sim PTX:    immediate post dominator      @  PC=0x600 (_1.ptx:338) @!%p2 bra $Lt_0_30210;
GPGPU-Sim PTX:  4 (potential) branch divergence @  PC=0x0e0 (_1.ptx:97) @!%p4 bra $Lt_0_25090;
GPGPU-Sim PTX:    immediate post dominator      @  PC=0x518 (_1.ptx:297) mov.f32 %f19, %f8;
GPGPU-Sim PTX:  5 (potential) branch divergence @  PC=0x198 (_1.ptx:129) @%p5 bra $Lt_0_26114;
GPGPU-Sim PTX:    immediate post dominator      @  PC=0x1a0 (_1.ptx:132) st.local.u32 [__cuda___cuda_result_3212+24], %r18;
GPGPU-Sim PTX:  6 (potential) branch divergence @  PC=0x218 (_1.ptx:149) @%p6 bra $Lt_0_26626;
GPGPU-Sim PTX:    immediate post dominator      @  PC=0x268 (_1.ptx:165) shr.u32 %r17, %r18, 30;
GPGPU-Sim PTX:  7 (potential) branch divergence @  PC=0x2a0 (_1.ptx:174) @%p7 bra $Lt_0_27394;
GPGPU-Sim PTX:    immediate post dominator      @  PC=0x2e8 (_1.ptx:190) add.u32 %r51, %r17, %r48;
GPGPU-Sim PTX:  8 (potential) branch divergence @  PC=0x2c8 (_1.ptx:181) bra.uni $Lt_0_27138;
GPGPU-Sim PTX:    immediate post dominator      @  PC=0x2e8 (_1.ptx:190) add.u32 %r51, %r17, %r48;
GPGPU-Sim PTX:  9 (potential) branch divergence @  PC=0x320 (_1.ptx:198) @%p9 bra $Lt_0_27650;
GPGPU-Sim PTX:    immediate post dominator      @  PC=0x360 (_1.ptx:213) mov.s32 %r59, %r17;
GPGPU-Sim PTX: 10 (potential) branch divergence @  PC=0x378 (_1.ptx:216) @%p10 bra $Lt_0_35842;
GPGPU-Sim PTX:    immediate post dominator      @  PC=0x3d8 (_1.ptx:240) mul.lo.u32 %r32, %r18, -921707870;
GPGPU-Sim PTX: 11 (potential) branch divergence @  PC=0x3c0 (_1.ptx:231) @%p11 bra $Lt_0_28674;
GPGPU-Sim PTX:    immediate post dominator      @  PC=0x3c8 (_1.ptx:233) bra.uni $Lt_0_28162;
GPGPU-Sim PTX: 12 (potential) branch divergence @  PC=0x3c8 (_1.ptx:233) bra.uni $Lt_0_28162;
GPGPU-Sim PTX:    immediate post dominator      @  PC=0x3d8 (_1.ptx:240) mul.lo.u32 %r32, %r18, -921707870;
GPGPU-Sim PTX: 13 (potential) branch divergence @  PC=0x400 (_1.ptx:246) @%p12 bra $Lt_0_29186;
GPGPU-Sim PTX:    immediate post dominator      @  PC=0x430 (_1.ptx:259) mov.u32 %r69, 0;
GPGPU-Sim PTX: 14 (potential) branch divergence @  PC=0x4a8 (_1.ptx:275) bra.uni $LDWendi___internal_fmad_177_6;
GPGPU-Sim PTX:    immediate post dominator      @  PC=0x518 (_1.ptx:297) mov.f32 %f19, %f8;
GPGPU-Sim PTX: 15 (potential) branch divergence @  PC=0x540 (_1.ptx:302) @%p13 bra $Lt_0_29954;
GPGPU-Sim PTX:    immediate post dominator      @  PC=0x5d0 (_1.ptx:328) neg.f32 %f36, %f29;
GPGPU-Sim PTX: 16 (potential) branch divergence @  PC=0x590 (_1.ptx:314) bra.uni $Lt_0_29698;
GPGPU-Sim PTX:    immediate post dominator      @  PC=0x5d0 (_1.ptx:328) neg.f32 %f36, %f29;
GPGPU-Sim PTX: 17 (potential) branch divergence @  PC=0x600 (_1.ptx:338) @!%p2 bra $Lt_0_30210;
GPGPU-Sim PTX:    immediate post dominator      @  PC=0xae8 (_1.ptx:567) cvt.rn.f32.s32 %f64, %r5;
GPGPU-Sim PTX: 18 (potential) branch divergence @  PC=0x618 (_1.ptx:343) bra.uni $LDWendi___isinff_177_1;
GPGPU-Sim PTX:    immediate post dominator      @  PC=0xae8 (_1.ptx:567) cvt.rn.f32.s32 %f64, %r5;
GPGPU-Sim PTX: 19 (potential) branch divergence @  PC=0x630 (_1.ptx:348) @!%p15 bra $Lt_0_30722;
GPGPU-Sim PTX:    immediate post dominator      @  PC=0xa68 (_1.ptx:548) mov.f32 %f51, %f40;
GPGPU-Sim PTX: 20 (potential) branch divergence @  PC=0x6e8 (_1.ptx:380) @%p16 bra $Lt_0_31746;
GPGPU-Sim PTX:    immediate post dominator      @  PC=0x6f0 (_1.ptx:383) st.local.u32 [__cuda___cuda_result_6040+24], %r90;
GPGPU-Sim PTX: 21 (potential) branch divergence @  PC=0x768 (_1.ptx:400) @%p17 bra $Lt_0_32258;
GPGPU-Sim PTX:    immediate post dominator      @  PC=0x7b8 (_1.ptx:416) shr.u32 %r89, %r90, 30;
GPGPU-Sim PTX: 22 (potential) branch divergence @  PC=0x7f0 (_1.ptx:425) @%p18 bra $Lt_0_33026;
GPGPU-Sim PTX:    immediate post dominator      @  PC=0x838 (_1.ptx:441) add.u32 %r122, %r89, %r119;
GPGPU-Sim PTX: 23 (potential) branch divergence @  PC=0x818 (_1.ptx:432) bra.uni $Lt_0_32770;
GPGPU-Sim PTX:    immediate post dominator      @  PC=0x838 (_1.ptx:441) add.u32 %r122, %r89, %r119;
GPGPU-Sim PTX: 24 (potential) branch divergence @  PC=0x870 (_1.ptx:449) @%p20 bra $Lt_0_33282;
GPGPU-Sim PTX:    immediate post dominator      @  PC=0x8b0 (_1.ptx:464) mov.s32 %r130, %r89;
GPGPU-Sim PTX: 25 (potential) branch divergence @  PC=0x8c8 (_1.ptx:467) @%p21 bra $Lt_0_36098;
GPGPU-Sim PTX:    immediate post dominator      @  PC=0x928 (_1.ptx:491) mul.lo.u32 %r104, %r90, -921707870;
GPGPU-Sim PTX: 26 (potential) branch divergence @  PC=0x910 (_1.ptx:482) @%p22 bra $Lt_0_34306;
GPGPU-Sim PTX:    immediate post dominator      @  PC=0x918 (_1.ptx:484) bra.uni $Lt_0_33794;
GPGPU-Sim PTX: 27 (potential) branch divergence @  PC=0x918 (_1.ptx:484) bra.uni $Lt_0_33794;
GPGPU-Sim PTX:    immediate post dominator      @  PC=0x928 (_1.ptx:491) mul.lo.u32 %r104, %r90, -921707870;
GPGPU-Sim PTX: 28 (potential) branch divergence @  PC=0x950 (_1.ptx:497) @%p23 bra $Lt_0_34818;
GPGPU-Sim PTX:    immediate post dominator      @  PC=0x980 (_1.ptx:510) mov.u32 %r140, 0;
GPGPU-Sim PTX: 29 (potential) branch divergence @  PC=0x9f8 (_1.ptx:526) bra.uni $LDWendi___internal_fmad_177_2;
GPGPU-Sim PTX:    immediate post dominator      @  PC=0xa68 (_1.ptx:548) mov.f32 %f51, %f40;
GPGPU-Sim PTX: 30 (potential) branch divergence @  PC=0xb18 (_1.ptx:573) @%p24 bra $Lt_0_24322;
GPGPU-Sim PTX:    immediate post dominator      @  PC=0xb20 (_1.ptx:574) bra.uni $Lt_0_23810;
GPGPU-Sim PTX: 31 (potential) branch divergence @  PC=0xb20 (_1.ptx:574) bra.uni $Lt_0_23810;
GPGPU-Sim PTX:    immediate post dominator      @  PC=0xb30 (_1.ptx:579) ld.param.u64 %rd14, [__cudaparm__Z15myfriend_kernelPii_a];
GPGPU-Sim PTX: ... end of reconvergence points for _Z15myfriend_kernelPii
GPGPU-Sim PTX: ... done pre-decoding instructions for '_Z15myfriend_kernelPii'.
GPGPU-Sim PTX: allocating stack frame region for .local "__cuda___cuda_result_3284" from 0x0 to 0x1c
GPGPU-Sim PTX: allocating stack frame region for .local "__cuda___cuda_result_60112" from 0x80 to 0x9c
GPGPU-Sim PTX: Warning -- ignoring pragma 'nounroll'
GPGPU-Sim PTX: Warning -- ignoring pragma 'nounroll'
GPGPU-Sim PTX: instruction assembly for function '_Z18mystreaming_kernelPii'...   done.
GPGPU-Sim PTX: finding reconvergence points for '_Z18mystreaming_kernelPii'...
GPGPU-Sim PTX: Finding dominators for '_Z18mystreaming_kernelPii'...
GPGPU-Sim PTX: Finding immediate dominators for '_Z18mystreaming_kernelPii'...
GPGPU-Sim PTX: Finding postdominators for '_Z18mystreaming_kernelPii'...
GPGPU-Sim PTX: Finding immediate postdominators for '_Z18mystreaming_kernelPii'...
GPGPU-Sim PTX: pre-decoding instructions for '_Z18mystreaming_kernelPii'...
GPGPU-Sim PTX: reconvergence points for _Z18mystreaming_kernelPii...
GPGPU-Sim PTX:  1 (potential) branch divergence @  PC=0xb80 (_1.ptx:605) @%p1 bra $Lt_1_35586;
GPGPU-Sim PTX:    immediate post dominator      @  PC=0x1698 (_1.ptx:1119) ld.param.u64 %rd14, [__cudaparm__Z18mystreaming_kernelPii_a];
GPGPU-Sim PTX:  2 (potential) branch divergence @  PC=0xc18 (_1.ptx:627) @%p3 bra $Lt_1_24578;
GPGPU-Sim PTX:    immediate post dominator      @  PC=0x1168 (_1.ptx:878) @!%p2 bra $Lt_1_30210;
GPGPU-Sim PTX:  3 (potential) branch divergence @  PC=0xc30 (_1.ptx:632) bra.uni $LDWendi___isinff_178_5;
GPGPU-Sim PTX:    immediate post dominator      @  PC=0x1168 (_1.ptx:878) @!%p2 bra $Lt_1_30210;
GPGPU-Sim PTX:  4 (potential) branch divergence @  PC=0xc48 (_1.ptx:637) @!%p4 bra $Lt_1_25090;
GPGPU-Sim PTX:    immediate post dominator      @  PC=0x1080 (_1.ptx:837) mov.f32 %f19, %f8;
GPGPU-Sim PTX:  5 (potential) branch divergence @  PC=0xd00 (_1.ptx:669) @%p5 bra $Lt_1_26114;
GPGPU-Sim PTX:    immediate post dominator      @  PC=0xd08 (_1.ptx:672) st.local.u32 [__cuda___cuda_result_3284+24], %r18;
GPGPU-Sim PTX:  6 (potential) branch divergence @  PC=0xd80 (_1.ptx:689) @%p6 bra $Lt_1_26626;
GPGPU-Sim PTX:    immediate post dominator      @  PC=0xdd0 (_1.ptx:705) shr.u32 %r17, %r18, 30;
GPGPU-Sim PTX:  7 (potential) branch divergence @  PC=0xe08 (_1.ptx:714) @%p7 bra $Lt_1_27394;
GPGPU-Sim PTX:    immediate post dominator      @  PC=0xe50 (_1.ptx:730) add.u32 %r51, %r17, %r48;
GPGPU-Sim PTX:  8 (potential) branch divergence @  PC=0xe30 (_1.ptx:721) bra.uni $Lt_1_27138;
GPGPU-Sim PTX:    immediate post dominator      @  PC=0xe50 (_1.ptx:730) add.u32 %r51, %r17, %r48;
GPGPU-Sim PTX:  9 (potential) branch divergence @  PC=0xe88 (_1.ptx:738) @%p9 bra $Lt_1_27650;
GPGPU-Sim PTX:    immediate post dominator      @  PC=0xec8 (_1.ptx:753) mov.s32 %r59, %r17;
GPGPU-Sim PTX: 10 (potential) branch divergence @  PC=0xee0 (_1.ptx:756) @%p10 bra $Lt_1_35842;
GPGPU-Sim PTX:    immediate post dominator      @  PC=0xf40 (_1.ptx:780) mul.lo.u32 %r32, %r18, -921707870;
GPGPU-Sim PTX: 11 (potential) branch divergence @  PC=0xf28 (_1.ptx:771) @%p11 bra $Lt_1_28674;
GPGPU-Sim PTX:    immediate post dominator      @  PC=0xf30 (_1.ptx:773) bra.uni $Lt_1_28162;
GPGPU-Sim PTX: 12 (potential) branch divergence @  PC=0xf30 (_1.ptx:773) bra.uni $Lt_1_28162;
GPGPU-Sim PTX:    immediate post dominator      @  PC=0xf40 (_1.ptx:780) mul.lo.u32 %r32, %r18, -921707870;
GPGPU-Sim PTX: 13 (potential) branch divergence @  PC=0xf68 (_1.ptx:786) @%p12 bra $Lt_1_29186;
GPGPU-Sim PTX:    immediate post dominator      @  PC=0xf98 (_1.ptx:799) mov.u32 %r69, 0;
GPGPU-Sim PTX: 14 (potential) branch divergence @  PC=0x1010 (_1.ptx:815) bra.uni $LDWendi___internal_fmad_178_6;
GPGPU-Sim PTX:    immediate post dominator      @  PC=0x1080 (_1.ptx:837) mov.f32 %f19, %f8;
GPGPU-Sim PTX: 15 (potential) branch divergence @  PC=0x10a8 (_1.ptx:842) @%p13 bra $Lt_1_29954;
GPGPU-Sim PTX:    immediate post dominator      @  PC=0x1138 (_1.ptx:868) neg.f32 %f36, %f29;
GPGPU-Sim PTX: 16 (potential) branch divergence @  PC=0x10f8 (_1.ptx:854) bra.uni $Lt_1_29698;
GPGPU-Sim PTX:    immediate post dominator      @  PC=0x1138 (_1.ptx:868) neg.f32 %f36, %f29;
GPGPU-Sim PTX: 17 (potential) branch divergence @  PC=0x1168 (_1.ptx:878) @!%p2 bra $Lt_1_30210;
GPGPU-Sim PTX:    immediate post dominator      @  PC=0x1650 (_1.ptx:1107) cvt.rn.f32.s32 %f64, %r5;
GPGPU-Sim PTX: 18 (potential) branch divergence @  PC=0x1180 (_1.ptx:883) bra.uni $LDWendi___isinff_178_1;
GPGPU-Sim PTX:    immediate post dominator      @  PC=0x1650 (_1.ptx:1107) cvt.rn.f32.s32 %f64, %r5;
GPGPU-Sim PTX: 19 (potential) branch divergence @  PC=0x1198 (_1.ptx:888) @!%p15 bra $Lt_1_30722;
GPGPU-Sim PTX:    immediate post dominator      @  PC=0x15d0 (_1.ptx:1088) mov.f32 %f51, %f40;
GPGPU-Sim PTX: 20 (potential) branch divergence @  PC=0x1250 (_1.ptx:920) @%p16 bra $Lt_1_31746;
GPGPU-Sim PTX:    immediate post dominator      @  PC=0x1258 (_1.ptx:923) st.local.u32 [__cuda___cuda_result_60112+24], %r90;
GPGPU-Sim PTX: 21 (potential) branch divergence @  PC=0x12d0 (_1.ptx:940) @%p17 bra $Lt_1_32258;
GPGPU-Sim PTX:    immediate post dominator      @  PC=0x1320 (_1.ptx:956) shr.u32 %r89, %r90, 30;
GPGPU-Sim PTX: 22 (potential) branch divergence @  PC=0x1358 (_1.ptx:965) @%p18 bra $Lt_1_33026;
GPGPU-Sim PTX:    immediate post dominator      @  PC=0x13a0 (_1.ptx:981) add.u32 %r122, %r89, %r119;
GPGPU-Sim PTX: 23 (potential) branch divergence @  PC=0x1380 (_1.ptx:972) bra.uni $Lt_1_32770;
GPGPU-Sim PTX:    immediate post dominator      @  PC=0x13a0 (_1.ptx:981) add.u32 %r122, %r89, %r119;
GPGPU-Sim PTX: 24 (potential) branch divergence @  PC=0x13d8 (_1.ptx:989) @%p20 bra $Lt_1_33282;
GPGPU-Sim PTX:    immediate post dominator      @  PC=0x1418 (_1.ptx:1004) mov.s32 %r130, %r89;
GPGPU-Sim PTX: 25 (potential) branch divergence @  PC=0x1430 (_1.ptx:1007) @%p21 bra $Lt_1_36098;
GPGPU-Sim PTX:    immediate post dominator      @  PC=0x1490 (_1.ptx:1031) mul.lo.u32 %r104, %r90, -921707870;
GPGPU-Sim PTX: 26 (potential) branch divergence @  PC=0x1478 (_1.ptx:1022) @%p22 bra $Lt_1_34306;
GPGPU-Sim PTX:    immediate post dominator      @  PC=0x1480 (_1.ptx:1024) bra.uni $Lt_1_33794;
GPGPU-Sim PTX: 27 (potential) branch divergence @  PC=0x1480 (_1.ptx:1024) bra.uni $Lt_1_33794;
GPGPU-Sim PTX:    immediate post dominator      @  PC=0x1490 (_1.ptx:1031) mul.lo.u32 %r104, %r90, -921707870;
GPGPU-Sim PTX: 28 (potential) branch divergence @  PC=0x14b8 (_1.ptx:1037) @%p23 bra $Lt_1_34818;
GPGPU-Sim PTX:    immediate post dominator      @  PC=0x14e8 (_1.ptx:1050) mov.u32 %r140, 0;
GPGPU-Sim PTX: 29 (potential) branch divergence @  PC=0x1560 (_1.ptx:1066) bra.uni $LDWendi___internal_fmad_178_2;
GPGPU-Sim PTX:    immediate post dominator      @  PC=0x15d0 (_1.ptx:1088) mov.f32 %f51, %f40;
GPGPU-Sim PTX: 30 (potential) branch divergence @  PC=0x1680 (_1.ptx:1113) @%p24 bra $Lt_1_24322;
GPGPU-Sim PTX:    immediate post dominator      @  PC=0x1688 (_1.ptx:1114) bra.uni $Lt_1_23810;
GPGPU-Sim PTX: 31 (potential) branch divergence @  PC=0x1688 (_1.ptx:1114) bra.uni $Lt_1_23810;
GPGPU-Sim PTX:    immediate post dominator      @  PC=0x1698 (_1.ptx:1119) ld.param.u64 %rd14, [__cudaparm__Z18mystreaming_kernelPii_a];
GPGPU-Sim PTX: ... end of reconvergence points for _Z18mystreaming_kernelPii
GPGPU-Sim PTX: ... done pre-decoding instructions for '_Z18mystreaming_kernelPii'.
GPGPU-Sim PTX: finished parsing EMBEDDED .ptx file _1.ptx
GPGPU-Sim PTX: extracting embedded .ptx to temporary file "_ptx_GKth9O"
Running: cat _ptx_GKth9O | sed 's/.version 1.5/.version 1.4/' | sed 's/, texmode_independent//' | sed 's/\(\.extern \.const\[1\] .b8 \w\+\)\[\]/\1\[1\]/' | sed 's/const\[.\]/const\[0\]/g' > _ptx2_g5oilT
GPGPU-Sim PTX: generating ptxinfo using "$CUDA_INSTALL_PATH/bin/ptxas --gpu-name=sm_20 -v _ptx2_g5oilT --output-file  /dev/null 2> _ptx_GKth9Oinfo"
GPGPU-Sim PTX: Kernel '_Z18mystreaming_kernelPii' : regs=23, lmem=4, smem=0, cmem=124
GPGPU-Sim PTX: Kernel '_Z15myfriend_kernelPii' : regs=23, lmem=4, smem=0, cmem=120
GPGPU-Sim PTX: removing ptxinfo using "rm -f _ptx_GKth9O _ptx2_g5oilT _ptx_GKth9Oinfo"
GPGPU-Sim PTX: loading globals with explicit initializers... 
GPGPU-Sim PTX: finished loading globals (0 bytes total).
GPGPU-Sim PTX: loading constants with explicit initializers...  done.
GPGPU-Sim PTX: __cudaRegisterFunction _Z18mystreaming_kernelPii : hostFun 0x0x413d22, fat_cubin_handle = 1
GPGPU-Sim PTX: __cudaRegisterFunction _Z15myfriend_kernelPii : hostFun 0x0x413c82, fat_cubin_handle = 1
GPGPU-Sim PTX: __cudaRegisterFatBinary found PTX versions for 'SPMV/main_spmv.cu', capability = compute_20
GPGPU-Sim PTX: Loading PTX for SPMV/main_spmv.cu, capability = compute_20
GPGPU-Sim PTX: allocating global region for "tex_x_float" from 0x118 to 0x11c (global memory space)
GPGPU-Sim PTX: allocating constant region for "jds_ptr_int" from 0x180 to 0x4fa0 (global memory space) 2
GPGPU-Sim PTX: allocating constant region for "sh_zcnt_int" from 0x5000 to 0x9e20 (global memory space) 3
GPGPU-Sim PTX: instruction assembly for function '_Z16spmv_jds_texturePfPKfPKiS3_S1_S3_i'...   done.
GPGPU-Sim PTX: finding reconvergence points for '_Z16spmv_jds_texturePfPKfPKiS3_S1_S3_i'...
GPGPU-Sim PTX: Finding dominators for '_Z16spmv_jds_texturePfPKfPKiS3_S1_S3_i'...
GPGPU-Sim PTX: Finding immediate dominators for '_Z16spmv_jds_texturePfPKfPKiS3_S1_S3_i'...
GPGPU-Sim PTX: Finding postdominators for '_Z16spmv_jds_texturePfPKfPKiS3_S1_S3_i'...
GPGPU-Sim PTX: Finding immediate postdominators for '_Z16spmv_jds_texturePfPKfPKiS3_S1_S3_i'...
GPGPU-Sim PTX: pre-decoding instructions for '_Z16spmv_jds_texturePfPKfPKiS3_S1_S3_i'...
GPGPU-Sim PTX: reconvergence points for _Z16spmv_jds_texturePfPKfPKiS3_S1_S3_i...
GPGPU-Sim PTX:  1 (potential) branch divergence @  PC=0x1718 (_2.ptx:79) @%p1 bra $Lt_0_3074;
GPGPU-Sim PTX:    immediate post dominator      @  PC=0x1aa8 (_2.ptx:233) exit;
GPGPU-Sim PTX:  2 (potential) branch divergence @  PC=0x1858 (_2.ptx:125) @%p2 bra $Lt_0_4098;
GPGPU-Sim PTX:    immediate post dominator      @  PC=0x1a48 (_2.ptx:217) fma.rn.f32 %f20, %f1, %f7, %f8;
GPGPU-Sim PTX:  3 (potential) branch divergence @  PC=0x18a8 (_2.ptx:138) @%p3 bra $Lt_0_5890;
GPGPU-Sim PTX:    immediate post dominator      @  PC=0x19c0 (_2.ptx:190) mov.u32 %r41, %r27;
GPGPU-Sim PTX:  4 (potential) branch divergence @  PC=0x19a8 (_2.ptx:182) @%p4 bra $Lt_0_4866;
GPGPU-Sim PTX:    immediate post dominator      @  PC=0x19b0 (_2.ptx:184) bra.uni $Lt_0_4354;
GPGPU-Sim PTX:  5 (potential) branch divergence @  PC=0x19b0 (_2.ptx:184) bra.uni $Lt_0_4354;
GPGPU-Sim PTX:    immediate post dominator      @  PC=0x19c0 (_2.ptx:190) mov.u32 %r41, %r27;
GPGPU-Sim PTX:  6 (potential) branch divergence @  PC=0x1a38 (_2.ptx:210) bra.uni $Lt_0_3842;
GPGPU-Sim PTX:    immediate post dominator      @  PC=0x1a48 (_2.ptx:217) fma.rn.f32 %f20, %f1, %f7, %f8;
GPGPU-Sim PTX:  7 (potential) branch divergence @  PC=0x1aa0 (_2.ptx:230) @%p5 bra $Lt_0_3586;
GPGPU-Sim PTX:    immediate post dominator      @  PC=0x1aa8 (_2.ptx:233) exit;
GPGPU-Sim PTX: ... end of reconvergence points for _Z16spmv_jds_texturePfPKfPKiS3_S1_S3_i
GPGPU-Sim PTX: ... done pre-decoding instructions for '_Z16spmv_jds_texturePfPKfPKiS3_S1_S3_i'.
GPGPU-Sim PTX: instruction assembly for function '_Z8spmv_jdsPfPKfPKiS3_S1_S3_i'...   done.
GPGPU-Sim PTX: finding reconvergence points for '_Z8spmv_jdsPfPKfPKiS3_S1_S3_i'...
GPGPU-Sim PTX: Finding dominators for '_Z8spmv_jdsPfPKfPKiS3_S1_S3_i'...
GPGPU-Sim PTX: Finding immediate dominators for '_Z8spmv_jdsPfPKfPKiS3_S1_S3_i'...
GPGPU-Sim PTX: Finding postdominators for '_Z8spmv_jdsPfPKfPKiS3_S1_S3_i'...
GPGPU-Sim PTX: Finding immediate postdominators for '_Z8spmv_jdsPfPKfPKiS3_S1_S3_i'...
GPGPU-Sim PTX: pre-decoding instructions for '_Z8spmv_jdsPfPKfPKiS3_S1_S3_i'...
GPGPU-Sim PTX: reconvergence points for _Z8spmv_jdsPfPKfPKiS3_S1_S3_i...
GPGPU-Sim PTX:  1 (potential) branch divergence @  PC=0x1af8 (_2.ptx:263) @%p1 bra $Lt_1_3074;
GPGPU-Sim PTX:    immediate post dominator      @  PC=0x1e08 (_2.ptx:397) exit;
GPGPU-Sim PTX:  2 (potential) branch divergence @  PC=0x1c10 (_2.ptx:303) @%p2 bra $Lt_1_4098;
GPGPU-Sim PTX:    immediate post dominator      @  PC=0x1da8 (_2.ptx:381) fma.rn.f32 %f6, %f1, %f2, %f3;
GPGPU-Sim PTX:  3 (potential) branch divergence @  PC=0x1c60 (_2.ptx:316) @%p3 bra $Lt_1_5890;
GPGPU-Sim PTX:    immediate post dominator      @  PC=0x1d50 (_2.ptx:363) fma.rn.f32 %f3, %f1, %f2, %f3;
GPGPU-Sim PTX:  4 (potential) branch divergence @  PC=0x1d38 (_2.ptx:354) @%p4 bra $Lt_1_4866;
GPGPU-Sim PTX:    immediate post dominator      @  PC=0x1d40 (_2.ptx:356) bra.uni $Lt_1_4354;
GPGPU-Sim PTX:  5 (potential) branch divergence @  PC=0x1d40 (_2.ptx:356) bra.uni $Lt_1_4354;
GPGPU-Sim PTX:    immediate post dominator      @  PC=0x1d50 (_2.ptx:363) fma.rn.f32 %f3, %f1, %f2, %f3;
GPGPU-Sim PTX:  6 (potential) branch divergence @  PC=0x1d98 (_2.ptx:374) bra.uni $Lt_1_3842;
GPGPU-Sim PTX:    immediate post dominator      @  PC=0x1da8 (_2.ptx:381) fma.rn.f32 %f6, %f1, %f2, %f3;
GPGPU-Sim PTX:  7 (potential) branch divergence @  PC=0x1e00 (_2.ptx:394) @%p5 bra $Lt_1_3586;
GPGPU-Sim PTX:    immediate post dominator      @  PC=0x1e08 (_2.ptx:397) exit;
GPGPU-Sim PTX: ... end of reconvergence points for _Z8spmv_jdsPfPKfPKiS3_S1_S3_i
GPGPU-Sim PTX: ... done pre-decoding instructions for '_Z8spmv_jdsPfPKfPKiS3_S1_S3_i'.
GPGPU-Sim PTX: finished parsing EMBEDDED .ptx file _2.ptx
GPGPU-Sim PTX: extracting embedded .ptx to temporary file "_ptx_5sf4LX"
Running: cat _ptx_5sf4LX | sed 's/.version 1.5/.version 1.4/' | sed 's/, texmode_independent//' | sed 's/\(\.extern \.const\[1\] .b8 \w\+\)\[\]/\1\[1\]/' | sed 's/const\[.\]/const\[0\]/g' > _ptx2_W3KRc2
GPGPU-Sim PTX: generating ptxinfo using "$CUDA_INSTALL_PATH/bin/ptxas --gpu-name=sm_20 -v _ptx2_W3KRc2 --output-file  /dev/null 2> _ptx_5sf4LXinfo"
GPGPU-Sim PTX: Kernel '_Z8spmv_jdsPfPKfPKiS3_S1_S3_i' : regs=22, lmem=0, smem=0, cmem=40092
GPGPU-Sim PTX: Kernel '_Z16spmv_jds_texturePfPKfPKiS3_S1_S3_i' : regs=21, lmem=0, smem=0, cmem=40088
GPGPU-Sim PTX: removing ptxinfo using "rm -f _ptx_5sf4LX _ptx2_W3KRc2 _ptx_5sf4LXinfo"
GPGPU-Sim PTX: loading globals with explicit initializers... 
GPGPU-Sim PTX: finished loading globals (0 bytes total).
GPGPU-Sim PTX: loading constants with explicit initializers...  done.
GPGPU-Sim PTX: __cudaRegisterFunction _Z8spmv_jdsPfPKfPKiS3_S1_S3_i : hostFun 0x0x4159c3, fat_cubin_handle = 2
GPGPU-Sim PTX: __cudaRegisterFunction _Z16spmv_jds_texturePfPKfPKiS3_S1_S3_i : hostFun 0x0x415808, fat_cubin_handle = 2
GPGPU-Sim PTX: in __cudaRegisterTexture:
GPGPU-Sim PTX:   int dim = 1
GPGPU-Sim PTX:   int norm = 0
GPGPU-Sim PTX:   int ext = 0
GPGPU-Sim PTX:   Execution warning: Not finished implementing "void __cudaRegisterTexture(void**, const textureReference*, const void**, const char*, int, int, int)"
GPGPU-Sim PTX: __cudaRegisterVar: hostVar = 0x6d16e0; deviceAddress = jds_ptr_int; deviceName = jds_ptr_int
GPGPU-Sim PTX: __cudaRegisterVar: Registering const memory space of 20000 bytes
GPGPU-Sim PTX registering constant jds_ptr_int (20000 bytes) to name mapping
GPGPU-Sim PTX: __cudaRegisterVar: hostVar = 0x6d6500; deviceAddress = sh_zcnt_int; deviceName = sh_zcnt_int
GPGPU-Sim PTX: __cudaRegisterVar: Registering const memory space of 20000 bytes
GPGPU-Sim PTX registering constant sh_zcnt_int (20000 bytes) to name mapping
GPGPU-Sim PTX: __cudaRegisterFatBinary found PTX versions for 'RAY/rayTracing.cu', capability = compute_20
GPGPU-Sim PTX: Loading PTX for RAY/rayTracing.cu, capability = compute_20
GPGPU-Sim PTX: allocating stack frame region for .param "__cudaretf__Z18intersectionSphere5Rayon6float3f" from 0x0 to 0x4
GPGPU-Sim PTX: allocating stack frame region for .param "__cudaparmf1__Z18intersectionSphere5Rayon6float3f" from 0x4 to 0x1c
GPGPU-Sim PTX: allocating stack frame region for .param "__cudaparmf2__Z18intersectionSphere5Rayon6float3f" from 0x1c to 0x28
GPGPU-Sim PTX: allocating stack frame region for .param "__cudaparmf3__Z18intersectionSphere5Rayon6float3f" from 0x28 to 0x2c
GPGPU-Sim PTX: allocating stack frame region for .param "__cudaretf__Z16intersectionPlan5Rayon6float3S0_" from 0x0 to 0x4
GPGPU-Sim PTX: allocating stack frame region for .param "__cudaparmf1__Z16intersectionPlan5Rayon6float3S0_" from 0x4 to 0x1c
GPGPU-Sim PTX: allocating stack frame region for .param "__cudaparmf2__Z16intersectionPlan5Rayon6float3S0_" from 0x1c to 0x28
GPGPU-Sim PTX: allocating stack frame region for .param "__cudaparmf3__Z16intersectionPlan5Rayon6float3S0_" from 0x28 to 0x34
GPGPU-Sim PTX: allocating stack frame region for .param "__cudaretf__Z10getNormale6float3S_" from 0x0 to 0xc
GPGPU-Sim PTX: allocating stack frame region for .param "__cudaparmf1__Z10getNormale6float3S_" from 0xc to 0x18
GPGPU-Sim PTX: allocating stack frame region for .param "__cudaparmf2__Z10getNormale6float3S_" from 0x18 to 0x24
GPGPU-Sim PTX: allocating stack frame region for .param "__cudaretf__Z11getNormaleP6float3" from 0x0 to 0xc
GPGPU-Sim PTX: allocating stack frame region for .param "__cudaparmf1__Z11getNormaleP6float3" from 0xc to 0x18
GPGPU-Sim PTX: allocating stack frame region for .param "__cudaretf__Z3mul10matrice3x46float3" from 0x0 to 0xc
GPGPU-Sim PTX: allocating stack frame region for .param "__cudaparmf1__Z3mul10matrice3x46float3" from 0xc to 0x3c
GPGPU-Sim PTX: allocating stack frame region for .param "__cudaparmf2__Z3mul10matrice3x46float3" from 0x3c to 0x48
GPGPU-Sim PTX: allocating stack frame region for .param "__cudaretf__Z3mul10matrice3x46float4" from 0x0 to 0x10
GPGPU-Sim PTX: allocating stack frame region for .param "__cudaparmf1__Z3mul10matrice3x46float4" from 0x10 to 0x40
GPGPU-Sim PTX: allocating stack frame region for .param "__cudaparmf2__Z3mul10matrice3x46float4" from 0x40 to 0x50
GPGPU-Sim PTX: allocating stack frame region for .param "__cudaretf__Z14rgbaFloatToInt6float4" from 0x0 to 0x4
GPGPU-Sim PTX: allocating stack frame region for .param "__cudaparmf1__Z14rgbaFloatToInt6float4" from 0x4 to 0x14
GPGPU-Sim PTX: allocating stack frame region for .param "__cudaretf__Z12notShadowRayP4Node6float3S1_f" from 0x0 to 0x4
GPGPU-Sim PTX: allocating stack frame region for .param "__cudaparmf1__Z12notShadowRayP4Node6float3S1_f" from 0x4 to 0xc
GPGPU-Sim PTX: allocating stack frame region for .param "__cudaparmf2__Z12notShadowRayP4Node6float3S1_f" from 0xc to 0x18
GPGPU-Sim PTX: allocating stack frame region for .param "__cudaparmf3__Z12notShadowRayP4Node6float3S1_f" from 0x18 to 0x24
GPGPU-Sim PTX: allocating stack frame region for .param "__cudaparmf4__Z12notShadowRayP4Node6float3S1_f" from 0x24 to 0x28
GPGPU-Sim PTX: allocating stack frame region for .param "__cudaretf__Z15float2int_pow20f" from 0x0 to 0x4
GPGPU-Sim PTX: allocating stack frame region for .param "__cudaparmf1__Z15float2int_pow20f" from 0x4 to 0x8
GPGPU-Sim PTX: allocating stack frame region for .param "__cudaretf__Z15float2int_pow50f" from 0x0 to 0x4
GPGPU-Sim PTX: allocating stack frame region for .param "__cudaparmf1__Z15float2int_pow50f" from 0x4 to 0x8
GPGPU-Sim PTX: instruction assembly for function '_Z18intersectionSphere5Rayon6float3f'...   done.
GPGPU-Sim PTX: finding reconvergence points for '_Z18intersectionSphere5Rayon6float3f'...
GPGPU-Sim PTX: Finding dominators for '_Z18intersectionSphere5Rayon6float3f'...
GPGPU-Sim PTX: Finding immediate dominators for '_Z18intersectionSphere5Rayon6float3f'...
GPGPU-Sim PTX: Finding postdominators for '_Z18intersectionSphere5Rayon6float3f'...
GPGPU-Sim PTX: Finding immediate postdominators for '_Z18intersectionSphere5Rayon6float3f'...
GPGPU-Sim PTX: pre-decoding instructions for '_Z18intersectionSphere5Rayon6float3f'...
GPGPU-Sim PTX: reconvergence points for _Z18intersectionSphere5Rayon6float3f...
GPGPU-Sim PTX:  1 (potential) branch divergence @  PC=0x1f40 (_3.ptx:114) @%p2 bra $Lt_0_3074;
GPGPU-Sim PTX:    immediate post dominator      @  PC=0x1fb0 (_3.ptx:134) mov.f32 %f39, %f32;
GPGPU-Sim PTX:  2 (potential) branch divergence @  PC=0x1f50 (_3.ptx:116) bra.uni $Lt_0_2818;
GPGPU-Sim PTX:    immediate post dominator      @  PC=0x1fb0 (_3.ptx:134) mov.f32 %f39, %f32;
GPGPU-Sim PTX:  3 (potential) branch divergence @  PC=0x1f70 (_3.ptx:121) @!%p3 bra $Lt_0_3586;
GPGPU-Sim PTX:    immediate post dominator      @  PC=0x1fb0 (_3.ptx:134) mov.f32 %f39, %f32;
GPGPU-Sim PTX:  4 (potential) branch divergence @  PC=0x1f80 (_3.ptx:123) bra.uni $Lt_0_3330;
GPGPU-Sim PTX:    immediate post dominator      @  PC=0x1fb0 (_3.ptx:134) mov.f32 %f39, %f32;
GPGPU-Sim PTX: ... end of reconvergence points for _Z18intersectionSphere5Rayon6float3f
GPGPU-Sim PTX: ... done pre-decoding instructions for '_Z18intersectionSphere5Rayon6float3f'.
GPGPU-Sim PTX: instruction assembly for function '_Z16intersectionPlan5Rayon6float3S0_'...   done.
GPGPU-Sim PTX: finding reconvergence points for '_Z16intersectionPlan5Rayon6float3S0_'...
GPGPU-Sim PTX: Finding dominators for '_Z16intersectionPlan5Rayon6float3S0_'...
GPGPU-Sim PTX: Finding immediate dominators for '_Z16intersectionPlan5Rayon6float3S0_'...
GPGPU-Sim PTX: Finding postdominators for '_Z16intersectionPlan5Rayon6float3S0_'...
GPGPU-Sim PTX: Finding immediate postdominators for '_Z16intersectionPlan5Rayon6float3S0_'...
GPGPU-Sim PTX: pre-decoding instructions for '_Z16intersectionPlan5Rayon6float3S0_'...
GPGPU-Sim PTX: reconvergence points for _Z16intersectionPlan5Rayon6float3S0_...
GPGPU-Sim PTX:  1 (potential) branch divergence @  PC=0x2010 (_3.ptx:155) @!%p1 bra $Lt_1_2050;
GPGPU-Sim PTX:    immediate post dominator      @  PC=0x2058 (_3.ptx:168) mov.f32 %f14, %f9;
GPGPU-Sim PTX:  2 (potential) branch divergence @  PC=0x2020 (_3.ptx:157) bra.uni $Lt_1_1794;
GPGPU-Sim PTX:    immediate post dominator      @  PC=0x2058 (_3.ptx:168) mov.f32 %f14, %f9;
GPGPU-Sim PTX: ... end of reconvergence points for _Z16intersectionPlan5Rayon6float3S0_
GPGPU-Sim PTX: ... done pre-decoding instructions for '_Z16intersectionPlan5Rayon6float3S0_'.
GPGPU-Sim PTX: instruction assembly for function '_Z10getNormale6float3S_'...   done.
GPGPU-Sim PTX: finding reconvergence points for '_Z10getNormale6float3S_'...
GPGPU-Sim PTX: Finding dominators for '_Z10getNormale6float3S_'...
GPGPU-Sim PTX: Finding immediate dominators for '_Z10getNormale6float3S_'...
GPGPU-Sim PTX: Finding postdominators for '_Z10getNormale6float3S_'...
GPGPU-Sim PTX: Finding immediate postdominators for '_Z10getNormale6float3S_'...
GPGPU-Sim PTX: pre-decoding instructions for '_Z10getNormale6float3S_'...
GPGPU-Sim PTX: reconvergence points for _Z10getNormale6float3S_...
GPGPU-Sim PTX: ... end of reconvergence points for _Z10getNormale6float3S_
GPGPU-Sim PTX: ... done pre-decoding instructions for '_Z10getNormale6float3S_'.
GPGPU-Sim PTX: instruction assembly for function '_Z11getNormaleP6float3'...   done.
GPGPU-Sim PTX: finding reconvergence points for '_Z11getNormaleP6float3'...
GPGPU-Sim PTX: Finding dominators for '_Z11getNormaleP6float3'...
GPGPU-Sim PTX: Finding immediate dominators for '_Z11getNormaleP6float3'...
GPGPU-Sim PTX: Finding postdominators for '_Z11getNormaleP6float3'...
GPGPU-Sim PTX: Finding immediate postdominators for '_Z11getNormaleP6float3'...
GPGPU-Sim PTX: pre-decoding instructions for '_Z11getNormaleP6float3'...
GPGPU-Sim PTX: reconvergence points for _Z11getNormaleP6float3...
GPGPU-Sim PTX: ... end of reconvergence points for _Z11getNormaleP6float3
GPGPU-Sim PTX: ... done pre-decoding instructions for '_Z11getNormaleP6float3'.
GPGPU-Sim PTX: instruction assembly for function '_Z3mul10matrice3x46float3'...   done.
GPGPU-Sim PTX: finding reconvergence points for '_Z3mul10matrice3x46float3'...
GPGPU-Sim PTX: Finding dominators for '_Z3mul10matrice3x46float3'...
GPGPU-Sim PTX: Finding immediate dominators for '_Z3mul10matrice3x46float3'...
GPGPU-Sim PTX: Finding postdominators for '_Z3mul10matrice3x46float3'...
GPGPU-Sim PTX: Finding immediate postdominators for '_Z3mul10matrice3x46float3'...
GPGPU-Sim PTX: pre-decoding instructions for '_Z3mul10matrice3x46float3'...
GPGPU-Sim PTX: reconvergence points for _Z3mul10matrice3x46float3...
GPGPU-Sim PTX: ... end of reconvergence points for _Z3mul10matrice3x46float3
GPGPU-Sim PTX: ... done pre-decoding instructions for '_Z3mul10matrice3x46float3'.
GPGPU-Sim PTX: instruction assembly for function '_Z3mul10matrice3x46float4'...   done.
GPGPU-Sim PTX: finding reconvergence points for '_Z3mul10matrice3x46float4'...
GPGPU-Sim PTX: Finding dominators for '_Z3mul10matrice3x46float4'...
GPGPU-Sim PTX: Finding immediate dominators for '_Z3mul10matrice3x46float4'...
GPGPU-Sim PTX: Finding postdominators for '_Z3mul10matrice3x46float4'...
GPGPU-Sim PTX: Finding immediate postdominators for '_Z3mul10matrice3x46float4'...
GPGPU-Sim PTX: pre-decoding instructions for '_Z3mul10matrice3x46float4'...
GPGPU-Sim PTX: reconvergence points for _Z3mul10matrice3x46float4...
GPGPU-Sim PTX: ... end of reconvergence points for _Z3mul10matrice3x46float4
GPGPU-Sim PTX: ... done pre-decoding instructions for '_Z3mul10matrice3x46float4'.
GPGPU-Sim PTX: instruction assembly for function '_Z14rgbaFloatToInt6float4'...   done.
GPGPU-Sim PTX: finding reconvergence points for '_Z14rgbaFloatToInt6float4'...
GPGPU-Sim PTX: Finding dominators for '_Z14rgbaFloatToInt6float4'...
GPGPU-Sim PTX: Finding immediate dominators for '_Z14rgbaFloatToInt6float4'...
GPGPU-Sim PTX: Finding postdominators for '_Z14rgbaFloatToInt6float4'...
GPGPU-Sim PTX: Finding immediate postdominators for '_Z14rgbaFloatToInt6float4'...
GPGPU-Sim PTX: pre-decoding instructions for '_Z14rgbaFloatToInt6float4'...
GPGPU-Sim PTX: reconvergence points for _Z14rgbaFloatToInt6float4...
GPGPU-Sim PTX: ... end of reconvergence points for _Z14rgbaFloatToInt6float4
GPGPU-Sim PTX: ... done pre-decoding instructions for '_Z14rgbaFloatToInt6float4'.
GPGPU-Sim PTX: allocating global region for "cnode" from 0x180 to 0x220 (global memory space)
GPGPU-Sim PTX: instruction assembly for function '_Z12notShadowRayP4Node6float3S1_f'...   done.
GPGPU-Sim PTX: finding reconvergence points for '_Z12notShadowRayP4Node6float3S1_f'...
GPGPU-Sim PTX: Finding dominators for '_Z12notShadowRayP4Node6float3S1_f'...
GPGPU-Sim PTX: Finding immediate dominators for '_Z12notShadowRayP4Node6float3S1_f'...
GPGPU-Sim PTX: Finding postdominators for '_Z12notShadowRayP4Node6float3S1_f'...
GPGPU-Sim PTX: Finding immediate postdominators for '_Z12notShadowRayP4Node6float3S1_f'...
GPGPU-Sim PTX: pre-decoding instructions for '_Z12notShadowRayP4Node6float3S1_f'...
GPGPU-Sim PTX: reconvergence points for _Z12notShadowRayP4Node6float3S1_f...
GPGPU-Sim PTX:  1 (potential) branch divergence @  PC=0x2688 (_3.ptx:432) @%p1 bra $Lt_7_8450;
GPGPU-Sim PTX:    immediate post dominator      @  PC=0x2878 (_3.ptx:520) mov.f32 %f58, 0f00000000;    // 0
GPGPU-Sim PTX:  2 (potential) branch divergence @  PC=0x26a8 (_3.ptx:438) @!%p2 bra $Lt_7_8962;
GPGPU-Sim PTX:    immediate post dominator      @  PC=0x2708 (_3.ptx:457) mov.f32 %f28, %f20;
GPGPU-Sim PTX:  3 (potential) branch divergence @  PC=0x26b8 (_3.ptx:441) bra.uni $Lt_7_8706;
GPGPU-Sim PTX:    immediate post dominator      @  PC=0x2708 (_3.ptx:457) mov.f32 %f28, %f20;
GPGPU-Sim PTX:  4 (potential) branch divergence @  PC=0x2710 (_3.ptx:458) bra.uni $Lt_7_8194;
GPGPU-Sim PTX:    immediate post dominator      @  PC=0x2878 (_3.ptx:520) mov.f32 %f58, 0f00000000;    // 0
GPGPU-Sim PTX:  5 (potential) branch divergence @  PC=0x2800 (_3.ptx:491) @%p5 bra $Lt_7_9474;
GPGPU-Sim PTX:    immediate post dominator      @  PC=0x2870 (_3.ptx:516) mov.f32 %f28, %f51;
GPGPU-Sim PTX:  6 (potential) branch divergence @  PC=0x2810 (_3.ptx:494) bra.uni $Lt_7_9730;
GPGPU-Sim PTX:    immediate post dominator      @  PC=0x2870 (_3.ptx:516) mov.f32 %f28, %f51;
GPGPU-Sim PTX:  7 (potential) branch divergence @  PC=0x2830 (_3.ptx:500) @!%p6 bra $Lt_7_9986;
GPGPU-Sim PTX:    immediate post dominator      @  PC=0x2870 (_3.ptx:516) mov.f32 %f28, %f51;
GPGPU-Sim PTX:  8 (potential) branch divergence @  PC=0x2840 (_3.ptx:503) bra.uni $Lt_7_9730;
GPGPU-Sim PTX:    immediate post dominator      @  PC=0x2870 (_3.ptx:516) mov.f32 %f28, %f51;
GPGPU-Sim PTX:  9 (potential) branch divergence @  PC=0x2888 (_3.ptx:522) @!%p7 bra $Lt_7_10242;
GPGPU-Sim PTX:    immediate post dominator      @  PC=0x2938 (_3.ptx:550) add.s32 %r1, %r1, 1;
GPGPU-Sim PTX: 10 (potential) branch divergence @  PC=0x2928 (_3.ptx:543) @!%p8 bra $Lt_7_10242;
GPGPU-Sim PTX:    immediate post dominator      @  PC=0x2938 (_3.ptx:550) add.s32 %r1, %r1, 1;
GPGPU-Sim PTX: 11 (potential) branch divergence @  PC=0x2958 (_3.ptx:554) @%p9 bra $Lt_7_10754;
GPGPU-Sim PTX:    immediate post dominator      @  PC=0x29b0 (_3.ptx:569) selp.s32 %r10, 1, 0, %p11;
GPGPU-Sim PTX: 12 (potential) branch divergence @  PC=0x2980 (_3.ptx:560) @%p10 bra $L_7_7170;
GPGPU-Sim PTX:    immediate post dominator      @  PC=0x29b0 (_3.ptx:569) selp.s32 %r10, 1, 0, %p11;
GPGPU-Sim PTX: 13 (potential) branch divergence @  PC=0x2988 (_3.ptx:561) bra.uni $L_7_7938;
GPGPU-Sim PTX:    immediate post dominator      @  PC=0x29b0 (_3.ptx:569) selp.s32 %r10, 1, 0, %p11;
GPGPU-Sim PTX: ... end of reconvergence points for _Z12notShadowRayP4Node6float3S1_f
GPGPU-Sim PTX: ... done pre-decoding instructions for '_Z12notShadowRayP4Node6float3S1_f'.
GPGPU-Sim PTX: instruction assembly for function '_Z15float2int_pow20f'...   done.
GPGPU-Sim PTX: finding reconvergence points for '_Z15float2int_pow20f'...
GPGPU-Sim PTX: Finding dominators for '_Z15float2int_pow20f'...
GPGPU-Sim PTX: Finding immediate dominators for '_Z15float2int_pow20f'...
GPGPU-Sim PTX: Finding postdominators for '_Z15float2int_pow20f'...
GPGPU-Sim PTX: Finding immediate postdominators for '_Z15float2int_pow20f'...
GPGPU-Sim PTX: pre-decoding instructions for '_Z15float2int_pow20f'...
GPGPU-Sim PTX: reconvergence points for _Z15float2int_pow20f...
GPGPU-Sim PTX: ... end of reconvergence points for _Z15float2int_pow20f
GPGPU-Sim PTX: ... done pre-decoding instructions for '_Z15float2int_pow20f'.
GPGPU-Sim PTX: instruction assembly for function '_Z15float2int_pow50f'...   done.
GPGPU-Sim PTX: finding reconvergence points for '_Z15float2int_pow50f'...
GPGPU-Sim PTX: Finding dominators for '_Z15float2int_pow50f'...
GPGPU-Sim PTX: Finding immediate dominators for '_Z15float2int_pow50f'...
GPGPU-Sim PTX: Finding postdominators for '_Z15float2int_pow50f'...
GPGPU-Sim PTX: Finding immediate postdominators for '_Z15float2int_pow50f'...
GPGPU-Sim PTX: pre-decoding instructions for '_Z15float2int_pow50f'...
GPGPU-Sim PTX: reconvergence points for _Z15float2int_pow50f...
GPGPU-Sim PTX: ... end of reconvergence points for _Z15float2int_pow50f
GPGPU-Sim PTX: ... done pre-decoding instructions for '_Z15float2int_pow50f'.
GPGPU-Sim PTX: allocating constant region for "MView" from 0x280 to 0x2b0 (global memory space) 4
GPGPU-Sim PTX: allocating stack frame region for .local "__cuda___cuda_local_var_40945_9_non_const_pile_32240" from 0x0 to 0x50
GPGPU-Sim PTX: instruction assembly for function '_Z6renderPjP4Nodejjff'...   done.
GPGPU-Sim PTX: finding reconvergence points for '_Z6renderPjP4Nodejjff'...
GPGPU-Sim PTX: Finding dominators for '_Z6renderPjP4Nodejjff'...
GPGPU-Sim PTX: Finding immediate dominators for '_Z6renderPjP4Nodejjff'...
GPGPU-Sim PTX: Finding postdominators for '_Z6renderPjP4Nodejjff'...
GPGPU-Sim PTX: Finding immediate postdominators for '_Z6renderPjP4Nodejjff'...
GPGPU-Sim PTX: pre-decoding instructions for '_Z6renderPjP4Nodejjff'...
GPGPU-Sim PTX: reconvergence points for _Z6renderPjP4Nodejjff...
GPGPU-Sim PTX:  1 (potential) branch divergence @  PC=0x2e00 (_3.ptx:746) @%p1 bra $Lt_10_44034;
GPGPU-Sim PTX:    immediate post dominator      @  PC=0x43c0 (_3.ptx:1652) exit;
GPGPU-Sim PTX:  2 (potential) branch divergence @  PC=0x3078 (_3.ptx:835) @%p2 bra $Lt_10_45570;
GPGPU-Sim PTX:    immediate post dominator      @  PC=0x3208 (_3.ptx:910) mov.f32 %f108, 0f00000000;   // 0
GPGPU-Sim PTX:  3 (potential) branch divergence @  PC=0x3098 (_3.ptx:841) @!%p3 bra $Lt_10_46082;
GPGPU-Sim PTX:    immediate post dominator      @  PC=0x30e0 (_3.ptx:857) mov.f32 %f87, %f82;
GPGPU-Sim PTX:  4 (potential) branch divergence @  PC=0x30a8 (_3.ptx:844) bra.uni $Lt_10_45826;
GPGPU-Sim PTX:    immediate post dominator      @  PC=0x30e0 (_3.ptx:857) mov.f32 %f87, %f82;
GPGPU-Sim PTX:  5 (potential) branch divergence @  PC=0x30e8 (_3.ptx:858) bra.uni $Lt_10_45314;
GPGPU-Sim PTX:    immediate post dominator      @  PC=0x3208 (_3.ptx:910) mov.f32 %f108, 0f00000000;   // 0
GPGPU-Sim PTX:  6 (potential) branch divergence @  PC=0x3190 (_3.ptx:882) @%p6 bra $Lt_10_46594;
GPGPU-Sim PTX:    immediate post dominator      @  PC=0x3200 (_3.ptx:907) mov.f32 %f87, %f101;
GPGPU-Sim PTX:  7 (potential) branch divergence @  PC=0x31a0 (_3.ptx:885) bra.uni $Lt_10_46850;
GPGPU-Sim PTX:    immediate post dominator      @  PC=0x3200 (_3.ptx:907) mov.f32 %f87, %f101;
GPGPU-Sim PTX:  8 (potential) branch divergence @  PC=0x31c0 (_3.ptx:891) @!%p7 bra $Lt_10_47106;
GPGPU-Sim PTX:    immediate post dominator      @  PC=0x3200 (_3.ptx:907) mov.f32 %f87, %f101;
GPGPU-Sim PTX:  9 (potential) branch divergence @  PC=0x31d0 (_3.ptx:894) bra.uni $Lt_10_46850;
GPGPU-Sim PTX:    immediate post dominator      @  PC=0x3200 (_3.ptx:907) mov.f32 %f87, %f101;
GPGPU-Sim PTX: 10 (potential) branch divergence @  PC=0x3248 (_3.ptx:918) @%p8 bra $Lt_10_47362;
GPGPU-Sim PTX:    immediate post dominator      @  PC=0x3260 (_3.ptx:926) add.s32 %r25, %r25, 1;
GPGPU-Sim PTX: 11 (potential) branch divergence @  PC=0x3280 (_3.ptx:930) @%p9 bra $Lt_10_45058;
GPGPU-Sim PTX:    immediate post dominator      @  PC=0x3288 (_3.ptx:932) mov.f32 %f109, 0f00000000;   // 0
GPGPU-Sim PTX: 12 (potential) branch divergence @  PC=0x32d0 (_3.ptx:941) @%p10 bra $Lt_10_48130;
GPGPU-Sim PTX:    immediate post dominator      @  PC=0x4190 (_3.ptx:1572) add.s32 %r23, %r23, 1;
GPGPU-Sim PTX: 13 (potential) branch divergence @  PC=0x3380 (_3.ptx:967) @%p11 bra $Lt_10_48898;
GPGPU-Sim PTX:    immediate post dominator      @  PC=0x3408 (_3.ptx:990) sub.f32 %f136, %f21, %f119;
GPGPU-Sim PTX: 14 (potential) branch divergence @  PC=0x33a0 (_3.ptx:973) bra.uni $Lt_10_48642;
GPGPU-Sim PTX:    immediate post dominator      @  PC=0x3408 (_3.ptx:990) sub.f32 %f136, %f21, %f119;
GPGPU-Sim PTX: 15 (potential) branch divergence @  PC=0x3480 (_3.ptx:1005) @!%p12 bra $Lt_10_49410;
GPGPU-Sim PTX:    immediate post dominator      @  PC=0x34c0 (_3.ptx:1020) mov.f32 %f153, 0f3d4ccccd;   // 0.05
GPGPU-Sim PTX: 16 (potential) branch divergence @  PC=0x34a0 (_3.ptx:1011) bra.uni $Lt_10_49154;
GPGPU-Sim PTX:    immediate post dominator      @  PC=0x34c0 (_3.ptx:1020) mov.f32 %f153, 0f3d4ccccd;   // 0.05
GPGPU-Sim PTX: 17 (potential) branch divergence @  PC=0x35c8 (_3.ptx:1054) @!%p13 bra $Lt_10_58114;
GPGPU-Sim PTX:    immediate post dominator      @  PC=0x40d0 (_3.ptx:1543) add.f32 %f399, %f126, %f126;
GPGPU-Sim PTX: 18 (potential) branch divergence @  PC=0x3610 (_3.ptx:1068) @%p14 bra $Lt_10_49922;
GPGPU-Sim PTX:    immediate post dominator      @  PC=0x3800 (_3.ptx:1157) mov.f32 %f221, 0f00000000;   // 0
GPGPU-Sim PTX: 19 (potential) branch divergence @  PC=0x3630 (_3.ptx:1074) @!%p15 bra $Lt_10_50434;
GPGPU-Sim PTX:    immediate post dominator      @  PC=0x3688 (_3.ptx:1093) mov.f32 %f190, %f183;
GPGPU-Sim PTX: 20 (potential) branch divergence @  PC=0x3640 (_3.ptx:1077) bra.uni $Lt_10_50178;
GPGPU-Sim PTX:    immediate post dominator      @  PC=0x3688 (_3.ptx:1093) mov.f32 %f190, %f183;
GPGPU-Sim PTX: 21 (potential) branch divergence @  PC=0x3690 (_3.ptx:1094) bra.uni $Lt_10_49666;
GPGPU-Sim PTX:    immediate post dominator      @  PC=0x3800 (_3.ptx:1157) mov.f32 %f221, 0f00000000;   // 0
GPGPU-Sim PTX: 22 (potential) branch divergence @  PC=0x3788 (_3.ptx:1128) @%p18 bra $Lt_10_50946;
GPGPU-Sim PTX:    immediate post dominator      @  PC=0x37f8 (_3.ptx:1153) mov.f32 %f190, %f214;
GPGPU-Sim PTX: 23 (potential) branch divergence @  PC=0x3798 (_3.ptx:1131) bra.uni $Lt_10_51202;
GPGPU-Sim PTX:    immediate post dominator      @  PC=0x37f8 (_3.ptx:1153) mov.f32 %f190, %f214;
GPGPU-Sim PTX: 24 (potential) branch divergence @  PC=0x37b8 (_3.ptx:1137) @!%p19 bra $Lt_10_51458;
GPGPU-Sim PTX:    immediate post dominator      @  PC=0x37f8 (_3.ptx:1153) mov.f32 %f190, %f214;
GPGPU-Sim PTX: 25 (potential) branch divergence @  PC=0x37c8 (_3.ptx:1140) bra.uni $Lt_10_51202;
GPGPU-Sim PTX:    immediate post dominator      @  PC=0x37f8 (_3.ptx:1153) mov.f32 %f190, %f214;
GPGPU-Sim PTX: 26 (potential) branch divergence @  PC=0x3810 (_3.ptx:1159) @!%p20 bra $Lt_10_58370;
GPGPU-Sim PTX:    immediate post dominator      @  PC=0x3878 (_3.ptx:1178) add.s32 %r50, %r50, 1;
GPGPU-Sim PTX: 27 (potential) branch divergence @  PC=0x3868 (_3.ptx:1171) @!%p21 bra $Lt_10_58370;
GPGPU-Sim PTX:    immediate post dominator      @  PC=0x3878 (_3.ptx:1178) add.s32 %r50, %r50, 1;
GPGPU-Sim PTX: 28 (potential) branch divergence @  PC=0x3898 (_3.ptx:1182) @%p22 bra $Lt_10_58882;
GPGPU-Sim PTX:    immediate post dominator      @  PC=0x38d0 (_3.ptx:1196) @!%p23 bra $Lt_10_58114;
GPGPU-Sim PTX: 29 (potential) branch divergence @  PC=0x38b0 (_3.ptx:1186) @%p23 bra $L_10_42498;
GPGPU-Sim PTX:    immediate post dominator      @  PC=0x38d0 (_3.ptx:1196) @!%p23 bra $Lt_10_58114;
GPGPU-Sim PTX: 30 (potential) branch divergence @  PC=0x38b8 (_3.ptx:1188) bra.uni $L_10_43266;
GPGPU-Sim PTX:    immediate post dominator      @  PC=0x38d0 (_3.ptx:1196) @!%p23 bra $Lt_10_58114;
GPGPU-Sim PTX: 31 (potential) branch divergence @  PC=0x38d0 (_3.ptx:1196) @!%p23 bra $Lt_10_58114;
GPGPU-Sim PTX:    immediate post dominator      @  PC=0x40d0 (_3.ptx:1543) add.f32 %f399, %f126, %f126;
GPGPU-Sim PTX: 32 (potential) branch divergence @  PC=0x3a18 (_3.ptx:1241) @!%p24 bra $Lt_10_51714;
GPGPU-Sim PTX:    immediate post dominator      @  PC=0x4090 (_3.ptx:1529) mov.f32 %f394, 0f3f4ccccd;   // 0.8
GPGPU-Sim PTX: 33 (potential) branch divergence @  PC=0x3a28 (_3.ptx:1245) bra.uni $LDWendi___isnanf_187_1;
GPGPU-Sim PTX:    immediate post dominator      @  PC=0x4090 (_3.ptx:1529) mov.f32 %f394, 0f3f4ccccd;   // 0.8
GPGPU-Sim PTX: 34 (potential) branch divergence @  PC=0x3a48 (_3.ptx:1252) @!%p25 bra $Lt_10_7682;
GPGPU-Sim PTX:    immediate post dominator      @  PC=0x4090 (_3.ptx:1529) mov.f32 %f394, 0f3f4ccccd;   // 0.8
GPGPU-Sim PTX: 35 (potential) branch divergence @  PC=0x3a50 (_3.ptx:1254) bra.uni $Lt_10_7938;
GPGPU-Sim PTX:    immediate post dominator      @  PC=0x3a70 (_3.ptx:1264) mov.f32 %f272, 0f7f800000;   // ((1.0F)/(0.0F))
GPGPU-Sim PTX: 36 (potential) branch divergence @  PC=0x3a68 (_3.ptx:1260) bra.uni $LDWendi___isnanf_187_1;
GPGPU-Sim PTX:    immediate post dominator      @  PC=0x4090 (_3.ptx:1529) mov.f32 %f394, 0f3f4ccccd;   // 0.8
GPGPU-Sim PTX: 37 (potential) branch divergence @  PC=0x3a80 (_3.ptx:1266) @!%p26 bra $Lt_10_52226;
GPGPU-Sim PTX:    immediate post dominator      @  PC=0x4090 (_3.ptx:1529) mov.f32 %f394, 0f3f4ccccd;   // 0.8
GPGPU-Sim PTX: 38 (potential) branch divergence @  PC=0x3a90 (_3.ptx:1270) bra.uni $LDWendi___isnanf_187_1;
GPGPU-Sim PTX:    immediate post dominator      @  PC=0x4090 (_3.ptx:1529) mov.f32 %f394, 0f3f4ccccd;   // 0.8
GPGPU-Sim PTX: 39 (potential) branch divergence @  PC=0x3aa8 (_3.ptx:1275) @!%p27 bra $Lt_10_52738;
GPGPU-Sim PTX:    immediate post dominator      @  PC=0x4090 (_3.ptx:1529) mov.f32 %f394, 0f3f4ccccd;   // 0.8
GPGPU-Sim PTX: 40 (potential) branch divergence @  PC=0x3b08 (_3.ptx:1289) bra.uni $LDWendi___isnanf_187_1;
GPGPU-Sim PTX:    immediate post dominator      @  PC=0x4090 (_3.ptx:1529) mov.f32 %f394, 0f3f4ccccd;   // 0.8
GPGPU-Sim PTX: 41 (potential) branch divergence @  PC=0x3b20 (_3.ptx:1294) @!%p29 bra $Lt_10_53250;
GPGPU-Sim PTX:    immediate post dominator      @  PC=0x4090 (_3.ptx:1529) mov.f32 %f394, 0f3f4ccccd;   // 0.8
GPGPU-Sim PTX: 42 (potential) branch divergence @  PC=0x3b70 (_3.ptx:1306) @!%p30 bra $Lt_10_53762;
GPGPU-Sim PTX:    immediate post dominator      @  PC=0x3b90 (_3.ptx:1315) mov.f32 %f268, %f284;
GPGPU-Sim PTX: 43 (potential) branch divergence @  PC=0x3b98 (_3.ptx:1316) bra.uni $LDWendi___isnanf_187_1;
GPGPU-Sim PTX:    immediate post dominator      @  PC=0x4090 (_3.ptx:1529) mov.f32 %f394, 0f3f4ccccd;   // 0.8
GPGPU-Sim PTX: 44 (potential) branch divergence @  PC=0x3bb0 (_3.ptx:1322) @!%p31 bra $Lt_10_59394;
GPGPU-Sim PTX:    immediate post dominator      @  PC=0x4090 (_3.ptx:1529) mov.f32 %f394, 0f3f4ccccd;   // 0.8
GPGPU-Sim PTX: 45 (potential) branch divergence @  PC=0x3bd8 (_3.ptx:1328) @!%p32 bra $Lt_10_59394;
GPGPU-Sim PTX:    immediate post dominator      @  PC=0x4090 (_3.ptx:1529) mov.f32 %f394, 0f3f4ccccd;   // 0.8
GPGPU-Sim PTX: 46 (potential) branch divergence @  PC=0x3bf0 (_3.ptx:1333) bra.uni $LDWendi___isnanf_187_1;
GPGPU-Sim PTX:    immediate post dominator      @  PC=0x4090 (_3.ptx:1529) mov.f32 %f394, 0f3f4ccccd;   // 0.8
GPGPU-Sim PTX: 47 (potential) branch divergence @  PC=0x3c28 (_3.ptx:1344) @%p33 bra $Lt_10_54530;
GPGPU-Sim PTX:    immediate post dominator      @  PC=0x3c70 (_3.ptx:1361) sub.s32 %r64, %r64, 127;
GPGPU-Sim PTX: 48 (potential) branch divergence @  PC=0x3c60 (_3.ptx:1354) bra.uni $Lt_10_54274;
GPGPU-Sim PTX:    immediate post dominator      @  PC=0x3c70 (_3.ptx:1361) sub.s32 %r64, %r64, 127;
GPGPU-Sim PTX: 49 (potential) branch divergence @  PC=0x3ca8 (_3.ptx:1369) @!%p34 bra $Lt_10_54786;
GPGPU-Sim PTX:    immediate post dominator      @  PC=0x3cc8 (_3.ptx:1379) mov.f32 %f302, 0fbf800000;   // -1
GPGPU-Sim PTX: 50 (potential) branch divergence @  PC=0x3f00 (_3.ptx:1459) @%p35 bra $Lt_10_55298;
GPGPU-Sim PTX:    immediate post dominator      @  PC=0x3f28 (_3.ptx:1470) mov.f32 %f367, %f365;
GPGPU-Sim PTX: 51 (potential) branch divergence @  PC=0x3fe8 (_3.ptx:1495) @!%p38 bra $Lt_10_55810;
GPGPU-Sim PTX:    immediate post dominator      @  PC=0x3ff8 (_3.ptx:1502) mov.f32 %f284, %f386;
GPGPU-Sim PTX: 52 (potential) branch divergence @  PC=0x4068 (_3.ptx:1516) @%p39 bra $Lt_10_56322;
GPGPU-Sim PTX:    immediate post dominator      @  PC=0x4088 (_3.ptx:1525) mov.f32 %f268, %f284;
GPGPU-Sim PTX: 53 (potential) branch divergence @  PC=0x41a8 (_3.ptx:1575) @%p40 bra $L_10_42242;
GPGPU-Sim PTX:    immediate post dominator      @  PC=0x41c0 (_3.ptx:1581) sub.s32 %r86, %r24, 1;
GPGPU-Sim PTX: 54 (potential) branch divergence @  PC=0x41b8 (_3.ptx:1578) @%p41 bra $L_10_41474;
GPGPU-Sim PTX:    immediate post dominator      @  PC=0x41c0 (_3.ptx:1581) sub.s32 %r86, %r24, 1;
GPGPU-Sim PTX: 55 (potential) branch divergence @  PC=0x41e0 (_3.ptx:1585) @%p42 bra $Lt_10_56834;
GPGPU-Sim PTX:    immediate post dominator      @  PC=0x42d8 (_3.ptx:1621) ld.global.u32 %r92, [%rd4+0];
GPGPU-Sim PTX: 56 (potential) branch divergence @  PC=0x42d0 (_3.ptx:1618) @%p43 bra $Lt_10_57346;
GPGPU-Sim PTX:    immediate post dominator      @  PC=0x42d8 (_3.ptx:1621) ld.global.u32 %r92, [%rd4+0];
GPGPU-Sim PTX: ... end of reconvergence points for _Z6renderPjP4Nodejjff
GPGPU-Sim PTX: ... done pre-decoding instructions for '_Z6renderPjP4Nodejjff'.
GPGPU-Sim PTX: finished parsing EMBEDDED .ptx file _3.ptx
GPGPU-Sim PTX: extracting embedded .ptx to temporary file "_ptx_mslBN6"
Running: cat _ptx_mslBN6 | sed 's/.version 1.5/.version 1.4/' | sed 's/, texmode_independent//' | sed 's/\(\.extern \.const\[1\] .b8 \w\+\)\[\]/\1\[1\]/' | sed 's/const\[.\]/const\[0\]/g' > _ptx2_m1gnob
GPGPU-Sim PTX: generating ptxinfo using "$CUDA_INSTALL_PATH/bin/ptxas --gpu-name=sm_20 -v _ptx2_m1gnob --output-file  /dev/null 2> _ptx_mslBN6info"
GPGPU-Sim PTX: Kernel '_Z6renderPjP4Nodejjff' : regs=63, lmem=4, smem=0, cmem=168
GPGPU-Sim PTX: removing ptxinfo using "rm -f _ptx_mslBN6 _ptx2_m1gnob _ptx_mslBN6info"
GPGPU-Sim PTX: loading globals with explicit initializers... 
GPGPU-Sim PTX: finished loading globals (0 bytes total).
GPGPU-Sim PTX: loading constants with explicit initializers...  done.
GPGPU-Sim PTX: __cudaRegisterFunction _Z6renderPjP4Nodejjff : hostFun 0x0x418cf4, fat_cubin_handle = 3
GPGPU-Sim PTX: __cudaRegisterVar: hostVar = 0x6db600; deviceAddress = MView; deviceName = MView
GPGPU-Sim PTX: __cudaRegisterVar: Registering const memory space of 48 bytes
GPGPU-Sim PTX registering constant MView (48 bytes) to name mapping
GPGPU-Sim PTX: __cudaRegisterVar: hostVar = 0x6db640; deviceAddress = cnode; deviceName = cnode
GPGPU-Sim PTX: __cudaRegisterVar: Registering const memory space of 160 bytes
GPGPU-Sim PTX registering constant cnode (160 bytes) to name mapping
GPGPU-Sim PTX: __cudaRegisterFatBinary found PTX versions for 'BP/backprop_cuda.cu', capability = compute_20
GPGPU-Sim PTX: Loading PTX for BP/backprop_cuda.cu, capability = compute_20
GPGPU-Sim PTX: allocating shared region for "__cuda___cuda_local_var_34825_34_non_const_input_node40" from 0x0 to 0x40 (shared memory space)
GPGPU-Sim PTX: allocating shared region for "__cuda___cuda_local_var_34826_34_non_const_weight_matrix104" from 0x80 to 0x480 (shared memory space)
GPGPU-Sim PTX: instruction assembly for function '_Z22bpnn_layerforward_CUDAPfS_S_S_ii'...   done.
GPGPU-Sim PTX: finding reconvergence points for '_Z22bpnn_layerforward_CUDAPfS_S_S_ii'...
GPGPU-Sim PTX: Finding dominators for '_Z22bpnn_layerforward_CUDAPfS_S_S_ii'...
GPGPU-Sim PTX: Finding immediate dominators for '_Z22bpnn_layerforward_CUDAPfS_S_S_ii'...
GPGPU-Sim PTX: Finding postdominators for '_Z22bpnn_layerforward_CUDAPfS_S_S_ii'...
GPGPU-Sim PTX: Finding immediate postdominators for '_Z22bpnn_layerforward_CUDAPfS_S_S_ii'...
GPGPU-Sim PTX: pre-decoding instructions for '_Z22bpnn_layerforward_CUDAPfS_S_S_ii'...
GPGPU-Sim PTX: reconvergence points for _Z22bpnn_layerforward_CUDAPfS_S_S_ii...
GPGPU-Sim PTX:  1 (potential) branch divergence @  PC=0x4410 (_4.ptx:74) @!%p1 bra $Lt_0_3586;
GPGPU-Sim PTX:    immediate post dominator      @  PC=0x4458 (_4.ptx:86) bar.sync 0;
GPGPU-Sim PTX:  2 (potential) branch divergence @  PC=0x4558 (_4.ptx:123) @!%p2 bra $Lt_0_4098;
GPGPU-Sim PTX:    immediate post dominator      @  PC=0x4658 (_4.ptx:166) ld.shared.f32 %f17, [%rd14+0];
GPGPU-Sim PTX:  3 (potential) branch divergence @  PC=0x45b0 (_4.ptx:137) @%p3 bra $Lt_0_4866;
GPGPU-Sim PTX:    immediate post dominator      @  PC=0x4630 (_4.ptx:158) bar.sync 0;
GPGPU-Sim PTX:  4 (potential) branch divergence @  PC=0x4650 (_4.ptx:163) @%p4 bra $Lt_0_4610;
GPGPU-Sim PTX:    immediate post dominator      @  PC=0x4658 (_4.ptx:166) ld.shared.f32 %f17, [%rd14+0];
GPGPU-Sim PTX:  5 (potential) branch divergence @  PC=0x4670 (_4.ptx:170) @!%p1 bra $Lt_0_5634;
GPGPU-Sim PTX:    immediate post dominator      @  PC=0x46d8 (_4.ptx:186) exit;
GPGPU-Sim PTX: ... end of reconvergence points for _Z22bpnn_layerforward_CUDAPfS_S_S_ii
GPGPU-Sim PTX: ... done pre-decoding instructions for '_Z22bpnn_layerforward_CUDAPfS_S_S_ii'.
GPGPU-Sim PTX: instruction assembly for function '_Z24bpnn_adjust_weights_cudaPfiS_iS_S_'...   done.
GPGPU-Sim PTX: finding reconvergence points for '_Z24bpnn_adjust_weights_cudaPfiS_iS_S_'...
GPGPU-Sim PTX: Finding dominators for '_Z24bpnn_adjust_weights_cudaPfiS_iS_S_'...
GPGPU-Sim PTX: Finding immediate dominators for '_Z24bpnn_adjust_weights_cudaPfiS_iS_S_'...
GPGPU-Sim PTX: Finding postdominators for '_Z24bpnn_adjust_weights_cudaPfiS_iS_S_'...
GPGPU-Sim PTX: Finding immediate postdominators for '_Z24bpnn_adjust_weights_cudaPfiS_iS_S_'...
GPGPU-Sim PTX: pre-decoding instructions for '_Z24bpnn_adjust_weights_cudaPfiS_iS_S_'...
GPGPU-Sim PTX: reconvergence points for _Z24bpnn_adjust_weights_cudaPfiS_iS_S_...
GPGPU-Sim PTX:  1 (potential) branch divergence @  PC=0x48f8 (_4.ptx:275) @%p1 bra $Lt_1_1282;
GPGPU-Sim PTX:    immediate post dominator      @  PC=0x49c8 (_4.ptx:305) exit;
GPGPU-Sim PTX: ... end of reconvergence points for _Z24bpnn_adjust_weights_cudaPfiS_iS_S_
GPGPU-Sim PTX: ... done pre-decoding instructions for '_Z24bpnn_adjust_weights_cudaPfiS_iS_S_'.
GPGPU-Sim PTX: finished parsing EMBEDDED .ptx file _4.ptx
GPGPU-Sim PTX: extracting embedded .ptx to temporary file "_ptx_Lykhhg"
Running: cat _ptx_Lykhhg | sed 's/.version 1.5/.version 1.4/' | sed 's/, texmode_independent//' | sed 's/\(\.extern \.const\[1\] .b8 \w\+\)\[\]/\1\[1\]/' | sed 's/const\[.\]/const\[0\]/g' > _ptx2_Afxcal
GPGPU-Sim PTX: generating ptxinfo using "$CUDA_INSTALL_PATH/bin/ptxas --gpu-name=sm_20 -v _ptx2_Afxcal --output-file  /dev/null 2> _ptx_Lykhhginfo"
GPGPU-Sim PTX: Kernel '_Z24bpnn_adjust_weights_cudaPfiS_iS_S_' : regs=22, lmem=0, smem=0, cmem=84
GPGPU-Sim PTX: Kernel '_Z22bpnn_layerforward_CUDAPfS_S_S_ii' : regs=13, lmem=0, smem=1088, cmem=72
GPGPU-Sim PTX: removing ptxinfo using "rm -f _ptx_Lykhhg _ptx2_Afxcal _ptx_Lykhhginfo"
GPGPU-Sim PTX: loading globals with explicit initializers... 
GPGPU-Sim PTX: finished loading globals (0 bytes total).
GPGPU-Sim PTX: loading constants with explicit initializers...  done.
GPGPU-Sim PTX: __cudaRegisterFunction _Z24bpnn_adjust_weights_cudaPfiS_iS_S_ : hostFun 0x0x41b2bc, fat_cubin_handle = 4
GPGPU-Sim PTX: __cudaRegisterFunction _Z22bpnn_layerforward_CUDAPfS_S_S_ii : hostFun 0x0x41b134, fat_cubin_handle = 4
GPGPU-Sim PTX: __cudaRegisterFatBinary found PTX versions for 'SAD/main_sad.cu', capability = compute_20
GPGPU-Sim PTX: Loading PTX for SAD/main_sad.cu, capability = compute_20
GPGPU-Sim PTX: allocating shared region for "sad_loc" from 0x0 to 0x0 (shared memory space)
GPGPU-Sim PTX: allocating shared region for "sad_loc_8b" from 0x0 to 0x0 (shared memory space)
GPGPU-Sim PTX: allocating shared region for "frame_loc" from 0x0 to 0x20 (shared memory space)
GPGPU-Sim PTX: allocating global region for "ref" from 0x118 to 0x11c (global memory space)
GPGPU-Sim PTX: instruction assembly for function '_Z11mb_sad_calcPtS_ii'...   done.
GPGPU-Sim PTX: finding reconvergence points for '_Z11mb_sad_calcPtS_ii'...
GPGPU-Sim PTX: Finding dominators for '_Z11mb_sad_calcPtS_ii'...
GPGPU-Sim PTX: Finding immediate dominators for '_Z11mb_sad_calcPtS_ii'...
GPGPU-Sim PTX: Finding postdominators for '_Z11mb_sad_calcPtS_ii'...
GPGPU-Sim PTX: Finding immediate postdominators for '_Z11mb_sad_calcPtS_ii'...
GPGPU-Sim PTX: pre-decoding instructions for '_Z11mb_sad_calcPtS_ii'...
GPGPU-Sim PTX: reconvergence points for _Z11mb_sad_calcPtS_ii...
GPGPU-Sim PTX:  1 (potential) branch divergence @  PC=0x4a10 (_5.ptx:75) @%p1 bra $Lt_0_9730;
GPGPU-Sim PTX:    immediate post dominator      @  PC=0x4bc0 (_5.ptx:134) bar.sync 0;
GPGPU-Sim PTX:  2 (potential) branch divergence @  PC=0x4ab8 (_5.ptx:96) @%p2 bra $Lt_0_9986;
GPGPU-Sim PTX:    immediate post dominator      @  PC=0x4b88 (_5.ptx:124) mov.u64 %rd1, frame_loc;
GPGPU-Sim PTX:  3 (potential) branch divergence @  PC=0x4b90 (_5.ptx:125) bra.uni $Lt_0_9474;
GPGPU-Sim PTX:    immediate post dominator      @  PC=0x4bc0 (_5.ptx:134) bar.sync 0;
GPGPU-Sim PTX:  4 (potential) branch divergence @  PC=0x4c50 (_5.ptx:152) @%p3 bra $Lt_0_10498;
GPGPU-Sim PTX:    immediate post dominator      @  PC=0x5238 (_5.ptx:384) bar.sync 0;
GPGPU-Sim PTX:  5 (potential) branch divergence @  PC=0x4d40 (_5.ptx:184) @%p6 bra $Lt_0_11010;
GPGPU-Sim PTX:    immediate post dominator      @  PC=0x5238 (_5.ptx:384) bar.sync 0;
GPGPU-Sim PTX:  6 (potential) branch divergence @  PC=0x51b8 (_5.ptx:355) @%p8 bra $Lt_0_12290;
GPGPU-Sim PTX:    immediate post dominator      @  PC=0x51c0 (_5.ptx:358) cvt.u64.u32 %rd13, %r96;
GPGPU-Sim PTX:  7 (potential) branch divergence @  PC=0x5208 (_5.ptx:370) @%p9 bra $Lt_0_12802;
GPGPU-Sim PTX:    immediate post dominator      @  PC=0x5220 (_5.ptx:378) add.u32 %r96, %r96, 3;
GPGPU-Sim PTX:  8 (potential) branch divergence @  PC=0x5230 (_5.ptx:380) @%p10 bra $Lt_0_11522;
GPGPU-Sim PTX:    immediate post dominator      @  PC=0x5238 (_5.ptx:384) bar.sync 0;
GPGPU-Sim PTX:  9 (potential) branch divergence @  PC=0x5258 (_5.ptx:388) @%p11 bra $Lt_0_13570;
GPGPU-Sim PTX:    immediate post dominator      @  PC=0x5440 (_5.ptx:457) exit;
GPGPU-Sim PTX: 10 (potential) branch divergence @  PC=0x52d0 (_5.ptx:403) @%p12 bra $Lt_0_14082;
GPGPU-Sim PTX:    immediate post dominator      @  PC=0x5440 (_5.ptx:457) exit;
GPGPU-Sim PTX: 11 (potential) branch divergence @  PC=0x52f0 (_5.ptx:408) @%p13 bra $Lt_0_14594;
GPGPU-Sim PTX:    immediate post dominator      @  PC=0x5440 (_5.ptx:457) exit;
GPGPU-Sim PTX: 12 (potential) branch divergence @  PC=0x5438 (_5.ptx:452) @%p14 bra $Lt_0_15106;
GPGPU-Sim PTX:    immediate post dominator      @  PC=0x5440 (_5.ptx:457) exit;
GPGPU-Sim PTX: ... end of reconvergence points for _Z11mb_sad_calcPtS_ii
GPGPU-Sim PTX: ... done pre-decoding instructions for '_Z11mb_sad_calcPtS_ii'.
GPGPU-Sim PTX: instruction assembly for function '_Z17larger_sad_calc_8Ptii'...   done.
GPGPU-Sim PTX: finding reconvergence points for '_Z17larger_sad_calc_8Ptii'...
GPGPU-Sim PTX: Finding dominators for '_Z17larger_sad_calc_8Ptii'...
GPGPU-Sim PTX: Finding immediate dominators for '_Z17larger_sad_calc_8Ptii'...
GPGPU-Sim PTX: Finding postdominators for '_Z17larger_sad_calc_8Ptii'...
GPGPU-Sim PTX: Finding immediate postdominators for '_Z17larger_sad_calc_8Ptii'...
GPGPU-Sim PTX: pre-decoding instructions for '_Z17larger_sad_calc_8Ptii'...
GPGPU-Sim PTX: reconvergence points for _Z17larger_sad_calc_8Ptii...
GPGPU-Sim PTX:  1 (potential) branch divergence @  PC=0x5468 (_5.ptx:477) @%p1 bra $Lt_1_2050;
GPGPU-Sim PTX:    immediate post dominator      @  PC=0x5588 (_5.ptx:517) cvt.s32.u32 %r26, %tid.x;
GPGPU-Sim PTX:  2 (potential) branch divergence @  PC=0x55a8 (_5.ptx:521) @%p2 bra $Lt_1_2562;
GPGPU-Sim PTX:    immediate post dominator      @  PC=0x57f8 (_5.ptx:608) exit;
GPGPU-Sim PTX:  3 (potential) branch divergence @  PC=0x57f0 (_5.ptx:605) @%p3 bra $Lt_1_3074;
GPGPU-Sim PTX:    immediate post dominator      @  PC=0x57f8 (_5.ptx:608) exit;
GPGPU-Sim PTX: ... end of reconvergence points for _Z17larger_sad_calc_8Ptii
GPGPU-Sim PTX: ... done pre-decoding instructions for '_Z17larger_sad_calc_8Ptii'.
GPGPU-Sim PTX: instruction assembly for function '_Z18larger_sad_calc_16Ptii'...   done.
GPGPU-Sim PTX: finding reconvergence points for '_Z18larger_sad_calc_16Ptii'...
GPGPU-Sim PTX: Finding dominators for '_Z18larger_sad_calc_16Ptii'...
GPGPU-Sim PTX: Finding immediate dominators for '_Z18larger_sad_calc_16Ptii'...
GPGPU-Sim PTX: Finding postdominators for '_Z18larger_sad_calc_16Ptii'...
GPGPU-Sim PTX: Finding immediate postdominators for '_Z18larger_sad_calc_16Ptii'...
GPGPU-Sim PTX: pre-decoding instructions for '_Z18larger_sad_calc_16Ptii'...
GPGPU-Sim PTX: reconvergence points for _Z18larger_sad_calc_16Ptii...
GPGPU-Sim PTX:  1 (potential) branch divergence @  PC=0x5820 (_5.ptx:627) @%p1 bra $Lt_2_1282;
GPGPU-Sim PTX:    immediate post dominator      @  PC=0x5a40 (_5.ptx:708) exit;
GPGPU-Sim PTX:  2 (potential) branch divergence @  PC=0x5a38 (_5.ptx:705) @%p2 bra $Lt_2_1794;
GPGPU-Sim PTX:    immediate post dominator      @  PC=0x5a40 (_5.ptx:708) exit;
GPGPU-Sim PTX: ... end of reconvergence points for _Z18larger_sad_calc_16Ptii
GPGPU-Sim PTX: ... done pre-decoding instructions for '_Z18larger_sad_calc_16Ptii'.
GPGPU-Sim PTX: finished parsing EMBEDDED .ptx file _5.ptx
GPGPU-Sim PTX: extracting embedded .ptx to temporary file "_ptx_juVo8p"
Running: cat _ptx_juVo8p | sed 's/.version 1.5/.version 1.4/' | sed 's/, texmode_independent//' | sed 's/\(\.extern \.const\[1\] .b8 \w\+\)\[\]/\1\[1\]/' | sed 's/const\[.\]/const\[0\]/g' > _ptx2_PRAC6u
GPGPU-Sim PTX: generating ptxinfo using "$CUDA_INSTALL_PATH/bin/ptxas --gpu-name=sm_20 -v _ptx2_PRAC6u --output-file  /dev/null 2> _ptx_juVo8pinfo"
GPGPU-Sim PTX: Kernel '_Z18larger_sad_calc_16Ptii' : regs=16, lmem=0, smem=0, cmem=52
GPGPU-Sim PTX: Kernel '_Z17larger_sad_calc_8Ptii' : regs=16, lmem=0, smem=0, cmem=48
GPGPU-Sim PTX: Kernel '_Z11mb_sad_calcPtS_ii' : regs=32, lmem=0, smem=32, cmem=64
[...]
GPGPU-Sim uArch: cycles simulated: 12500  inst.: 8567023 (ipc=685.4) sim_rate=305965 (inst/sec) elapsed = 0:0:00:28 / Sat Sep 16 10:33:44 2017
gpu_sim_insn_1 = 2451151 (ipc=196.1, lat=) 
gpu_sim_insn_2 = 1137024 (ipc=91.0, lat=) 
gpu_sim_insn_3 = 4978848 (ipc=398.3, lat=) 
GPGPU-Sim PTX: 8800000 instructions simulated : ctaid=(11,0,0) tid=(47,0,0)
GPGPU-Sim uArch: Shader 16 finished CTA #7 (12707,0), 7 CTAs running
GPGPU-Sim uArch: Shader: 16, cta: 7 initialized @(12708,0), ACTIVE=8, KERNEL=4, STREAM=2
GPGPU-Sim PTX: 8900000 instructions simulated : ctaid=(13,0,0) tid=(33,0,0)
GPGPU-Sim PTX: 9000000 instructions simulated : ctaid=(29,0,0) tid=(12,0,0)
GPGPU-Sim PTX: 9100000 instructions simulated : ctaid=(6,0,0) tid=(39,0,0)
GPGPU-Sim uArch: cycles simulated: 13000  inst.: 8947577 (ipc=688.3) sim_rate=308537 (inst/sec) elapsed = 0:0:00:29 / Sat Sep 16 10:33:45 2017
gpu_sim_insn_1 = 2693177 (ipc=207.2, lat=) 
gpu_sim_insn_2 = 1148736 (ipc=88.4, lat=) 
gpu_sim_insn_3 = 5105664 (ipc=392.8, lat=) 
GPGPU-Sim uArch: Shader 16 finished CTA #6 (13010,0), 7 CTAs running
GPGPU-Sim uArch: Shader: 16, cta: 6 initialized @(13011,0), ACTIVE=8, KERNEL=4, STREAM=2
GPGPU-Sim PTX: 9200000 instructions simulated : ctaid=(3,0,0) tid=(39,0,0)
GPGPU-Sim uArch: Shader 12 finished CTA #1 (13156,0), 7 CTAs running
GPGPU-Sim uArch: Shader: 12, cta: 1 initialized @(13157,0), ACTIVE=8, KERNEL=4, STREAM=2
GPGPU-Sim PTX: 9300000 instructions simulated : ctaid=(13,1,0) tid=(22,0,0)
GPGPU-Sim uArch: Shader 11 finished CTA #0 (13274,0), 7 CTAs running
GPGPU-Sim uArch: Shader 12 finished CTA #0 (13274,0), 7 CTAs running
GPGPU-Sim uArch: Shader: 11, cta: 0 initialized @(13275,0), ACTIVE=8, KERNEL=4, STREAM=2
GPGPU-Sim uArch: Shader: 12, cta: 0 initialized @(13275,0), ACTIVE=8, KERNEL=4, STREAM=2
GPGPU-Sim PTX: 9400000 instructions simulated : ctaid=(144,0,0) tid=(7,0,0)
GPGPU-Sim uArch: cycles simulated: 13500  inst.: 9280525 (ipc=687.4) sim_rate=299371 (inst/sec) elapsed = 0:0:00:31 / Sat Sep 16 10:33:47 2017
gpu_sim_insn_1 = 2931469 (ipc=217.2, lat=) 
gpu_sim_insn_2 = 1165792 (ipc=86.4, lat=) 
gpu_sim_insn_3 = 5183264 (ipc=384.0, lat=) 
GPGPU-Sim PTX: 9500000 instructions simulated : ctaid=(38,0,0) tid=(30,0,0)
GPGPU-Sim uArch: Shader 11 finished CTA #1 (13667,0), 7 CTAs running
GPGPU-Sim uArch: Shader: 11, cta: 1 initialized @(13668,0), ACTIVE=8, KERNEL=4, STREAM=2
GPGPU-Sim uArch: Shader 11 finished CTA #2 (13709,0), 7 CTAs running
GPGPU-Sim uArch: Shader: 11, cta: 2 initialized @(13710,0), ACTIVE=8, KERNEL=4, STREAM=2
GPGPU-Sim PTX: 9600000 instructions simulated : ctaid=(40,0,0) tid=(2,0,0)
GPGPU-Sim uArch: Shader 12 finished CTA #2 (13829,0), 7 CTAs running
GPGPU-Sim uArch: Shader: 12, cta: 2 initialized @(13830,0), ACTIVE=8, KERNEL=4, STREAM=2
GPGPU-Sim uArch: Shader 12 finished CTA #3 (13854,0), 7 CTAs running
GPGPU-Sim uArch: Shader: 12, cta: 3 initialized @(13855,0), ACTIVE=8, KERNEL=4, STREAM=2
GPGPU-Sim PTX: 9700000 instructions simulated : ctaid=(9,0,0) tid=(53,0,0)
GPGPU-Sim uArch: cycles simulated: 14000  inst.: 9593858 (ipc=685.3) sim_rate=299808 (inst/sec) elapsed = 0:0:00:32 / Sat Sep 16 10:33:48 2017
gpu_sim_insn_1 = 3165378 (ipc=226.1, lat=) 
gpu_sim_insn_2 = 1182688 (ipc=84.5, lat=) 
gpu_sim_insn_3 = 5245792 (ipc=374.7, lat=) 
GPGPU-Sim uArch: Shader 12 finished CTA #4 (14063,0), 7 CTAs running
GPGPU-Sim uArch: Shader: 12, cta: 4 initialized @(14064,0), ACTIVE=8, KERNEL=4, STREAM=2
GPGPU-Sim PTX: 9800000 instructions simulated : ctaid=(11,1,0) tid=(60,0,0)
GPGPU-Sim uArch: Shader 12 finished CTA #6 (14072,0), 7 CTAs running
GPGPU-Sim uArch: Shader: 12, cta: 6 initialized @(14073,0), ACTIVE=8, KERNEL=4, STREAM=2
GPGPU-Sim uArch: Shader 12 finished CTA #5 (14163,0), 7 CTAs running
GPGPU-Sim uArch: Shader: 12, cta: 5 initialized @(14164,0), ACTIVE=8, KERNEL=4, STREAM=2
GPGPU-Sim uArch: Shader 11 finished CTA #4 (14170,0), 7 CTAs running
GPGPU-Sim uArch: Shader: 11, cta: 4 initialized @(14171,0), ACTIVE=8, KERNEL=4, STREAM=2
GPGPU-Sim PTX: 9900000 instructions simulated : ctaid=(10,0,0) tid=(13,0,0)
GPGPU-Sim uArch: Shader 17 finished CTA #0 (14227,0), 7 CTAs running
GPGPU-Sim uArch: Shader: 17, cta: 0 initialized @(14228,0), ACTIVE=8, KERNEL=4, STREAM=2
GPGPU-Sim uArch: Shader 11 finished CTA #3 (14295,0), 7 CTAs running
GPGPU-Sim uArch: Shader: 11, cta: 3 initialized @(14296,0), ACTIVE=8, KERNEL=4, STREAM=2
GPGPU-Sim uArch: Shader 12 finished CTA #7 (14302,0), 7 CTAs running
GPGPU-Sim uArch: Shader: 12, cta: 7 initialized @(14303,0), ACTIVE=8, KERNEL=4, STREAM=2
GPGPU-Sim PTX: 10000000 instructions simulated : ctaid=(10,1,0) tid=(52,0,0)
GPGPU-Sim uArch: Shader 13 finished CTA #0 (14416,0), 7 CTAs running
GPGPU-Sim uArch: Shader: 13, cta: 0 initialized @(14417,0), ACTIVE=8, KERNEL=4, STREAM=2
GPGPU-Sim uArch: Shader 17 finished CTA #1 (14456,0), 7 CTAs running
GPGPU-Sim uArch: Shader: 17, cta: 1 initialized @(14457,0), ACTIVE=8, KERNEL=4, STREAM=2
GPGPU-Sim uArch: cycles simulated: 14500  inst.: 9894616 (ipc=682.4) sim_rate=299836 (inst/sec) elapsed = 0:0:00:33 / Sat Sep 16 10:33:49 2017
gpu_sim_insn_1 = 3401464 (ipc=234.6, lat=) 
gpu_sim_insn_2 = 1213728 (ipc=83.7, lat=) 
gpu_sim_insn_3 = 5279424 (ipc=364.1, lat=) 
GPGPU-Sim uArch: Shader 13 finished CTA #1 (14523,0), 7 CTAs running
GPGPU-Sim uArch: Shader: 13, cta: 1 initialized @(14524,0), ACTIVE=8, KERNEL=4, STREAM=2
GPGPU-Sim uArch: Shader 18 finished CTA #0 (14532,0), 7 CTAs running
GPGPU-Sim uArch: Shader: 18, cta: 0 initialized @(14533,0), ACTIVE=8, KERNEL=4, STREAM=2
GPGPU-Sim uArch: Shader 11 finished CTA #5 (14537,0), 7 CTAs running
GPGPU-Sim uArch: Shader: 11, cta: 5 initialized @(14538,0), ACTIVE=8, KERNEL=4, STREAM=2
GPGPU-Sim PTX: 10100000 instructions simulated : ctaid=(14,1,0) tid=(30,0,0)
GPGPU-Sim PTX: 10200000 instructions simulated : ctaid=(8,0,0) tid=(16,0,0)
GPGPU-Sim uArch: Shader 14 finished CTA #0 (14748,0), 7 CTAs running
GPGPU-Sim uArch: Shader: 14, cta: 0 initialized @(14749,0), ACTIVE=8, KERNEL=4, STREAM=2
GPGPU-Sim uArch: Shader 15 finished CTA #0 (14778,0), 7 CTAs running
GPGPU-Sim uArch: Shader: 15, cta: 0 initialized @(14779,0), ACTIVE=8, KERNEL=4, STREAM=2
GPGPU-Sim uArch: Shader 19 finished CTA #0 (14796,0), 7 CTAs running
GPGPU-Sim uArch: Shader: 19, cta: 0 initialized @(14797,0), ACTIVE=8, KERNEL=4, STREAM=2
GPGPU-Sim uArch: Shader 14 finished CTA #1 (14816,0), 7 CTAs running
GPGPU-Sim uArch: Shader: 14, cta: 1 initialized @(14817,0), ACTIVE=8, KERNEL=4, STREAM=2
GPGPU-Sim uArch: Shader 11 finished CTA #6 (14826,0), 7 CTAs running
GPGPU-Sim uArch: Shader: 11, cta: 6 initialized @(14827,0), ACTIVE=8, KERNEL=4, STREAM=2
GPGPU-Sim uArch: Shader 18 finished CTA #1 (14857,0), 7 CTAs running
GPGPU-Sim uArch: Shader: 18, cta: 1 initialized @(14858,0), ACTIVE=8, KERNEL=4, STREAM=2
GPGPU-Sim uArch: Shader 13 finished CTA #7 (14890,0), 7 CTAs running
GPGPU-Sim uArch: Shader: 13, cta: 7 initialized @(14891,0), ACTIVE=8, KERNEL=4, STREAM=2
GPGPU-Sim PTX: 10300000 instructions simulated : ctaid=(160,0,0) tid=(5,0,0)
GPGPU-Sim uArch: Shader 13 finished CTA #5 (14926,0), 7 CTAs running
GPGPU-Sim uArch: Shader: 13, cta: 5 initialized @(14927,0), ACTIVE=8, KERNEL=4, STREAM=2
GPGPU-Sim uArch: Shader 18 finished CTA #5 (14946,0), 7 CTAs running
GPGPU-Sim uArch: Shader: 18, cta: 5 initialized @(14947,0), ACTIVE=8, KERNEL=4, STREAM=2
GPGPU-Sim uArch: Shader 13 finished CTA #6 (14952,0), 7 CTAs running
GPGPU-Sim uArch: Shader: 13, cta: 6 initialized @(14953,0), ACTIVE=8, KERNEL=4, STREAM=2
GPGPU-Sim uArch: Shader 14 finished CTA #3 (14982,0), 7 CTAs running
GPGPU-Sim uArch: Shader: 14, cta: 3 initialized @(14983,0), ACTIVE=8, KERNEL=4, STREAM=2
GPGPU-Sim uArch: cycles simulated: 15000  inst.: 10184640 (ipc=679.0) sim_rate=290989 (inst/sec) elapsed = 0:0:00:35 / Sat Sep 16 10:33:51 2017
gpu_sim_insn_1 = 3638176 (ipc=242.6, lat=) 
gpu_sim_insn_2 = 1240256 (ipc=82.7, lat=) 
gpu_sim_insn_3 = 5306208 (ipc=353.8, lat=) 
GPGPU-Sim uArch: Shader 13 finished CTA #2 (15015,0), 7 CTAs running
GPGPU-Sim uArch: Shader: 13, cta: 2 initialized @(15016,0), ACTIVE=8, KERNEL=4, STREAM=2
GPGPU-Sim uArch: Shader 18 finished CTA #2 (15062,0), 7 CTAs running
GPGPU-Sim uArch: Shader: 18, cta: 2 initialized @(15063,0), ACTIVE=8, KERNEL=4, STREAM=2
GPGPU-Sim PTX: 10400000 instructions simulated : ctaid=(25,0,0) tid=(36,0,0)
GPGPU-Sim uArch: Shader 18 finished CTA #3 (15082,0), 7 CTAs running
GPGPU-Sim uArch: Shader: 18, cta: 3 initialized @(15083,0), ACTIVE=8, KERNEL=4, STREAM=2
GPGPU-Sim uArch: Shader 13 finished CTA #4 (15084,0), 7 CTAs running
GPGPU-Sim uArch: Shader: 13, cta: 4 initialized @(15085,0), ACTIVE=8, KERNEL=4, STREAM=2
GPGPU-Sim uArch: Shader 13 finished CTA #3 (15101,0), 7 CTAs running
GPGPU-Sim uArch: Shader: 13, cta: 3 initialized @(15102,0), ACTIVE=8, KERNEL=4, STREAM=2
GPGPU-Sim uArch: Shader 10 finished CTA #0 (15150,0), 7 CTAs running
GPGPU-Sim uArch: Shader: 10, cta: 0 initialized @(15151,0), ACTIVE=8, KERNEL=4, STREAM=2
GPGPU-Sim uArch: Shader 11 finished CTA #7 (15158,0), 7 CTAs running
GPGPU-Sim uArch: Shader: 11, cta: 7 initialized @(15159,0), ACTIVE=8, KERNEL=4, STREAM=2
GPGPU-Sim uArch: Shader 18 finished CTA #4 (15186,0), 7 CTAs running
GPGPU-Sim uArch: Shader: 18, cta: 4 initialized @(15187,0), ACTIVE=8, KERNEL=4, STREAM=2
GPGPU-Sim PTX: 10500000 instructions simulated : ctaid=(0,0,0) tid=(10,0,0)
GPGPU-Sim uArch: Shader 18 finished CTA #7 (15218,0), 7 CTAs running
GPGPU-Sim uArch: Shader: 18, cta: 7 initialized @(15219,0), ACTIVE=8, KERNEL=4, STREAM=2
GPGPU-Sim uArch: Shader 18 finished CTA #6 (15243,0), 7 CTAs running
GPGPU-Sim uArch: Shader: 18, cta: 6 initialized @(15244,0), ACTIVE=8, KERNEL=4, STREAM=2
GPGPU-Sim uArch: Shader 14 finished CTA #2 (15329,0), 7 CTAs running
GPGPU-Sim uArch: Shader: 14, cta: 2 initialized @(15330,0), ACTIVE=8, KERNEL=4, STREAM=2
GPGPU-Sim PTX: 10600000 instructions simulated : ctaid=(10,0,0) tid=(41,0,0)
GPGPU-Sim uArch: Shader 10 finished CTA #1 (15391,0), 7 CTAs running
GPGPU-Sim uArch: Shader: 10, cta: 1 initialized @(15392,0), ACTIVE=8, KERNEL=4, STREAM=2
GPGPU-Sim uArch: Shader 17 finished CTA #3 (15440,0), 7 CTAs running
GPGPU-Sim uArch: Shader: 17, cta: 3 initialized @(15441,0), ACTIVE=8, KERNEL=4, STREAM=2
GPGPU-Sim uArch: cycles simulated: 15500  inst.: 10517278 (ipc=678.5) sim_rate=292146 (inst/sec) elapsed = 0:0:00:36 / Sat Sep 16 10:33:52 2017
gpu_sim_insn_1 = 3872318 (ipc=249.8, lat=) 
gpu_sim_insn_2 = 1274752 (ipc=82.2, lat=) 
gpu_sim_insn_3 = 5370208 (ipc=346.5, lat=) 
GPGPU-Sim uArch: Shader 25 finished CTA #0 (15517,0), 6 CTAs running
GPGPU-Sim uArch: Shader: 25, cta: 0 initialized @(15518,0), ACTIVE=7, KERNEL=5, STREAM=3
GPGPU-Sim PTX: 10700000 instructions simulated : ctaid=(23,0,0) tid=(16,0,0)
GPGPU-Sim uArch: Shader 17 finished CTA #2 (15675,0), 7 CTAs running
GPGPU-Sim uArch: Shader: 17, cta: 2 initialized @(15676,0), ACTIVE=8, KERNEL=4, STREAM=2
GPGPU-Sim PTX: 10800000 instructions simulated : ctaid=(269,0,0) tid=(87,0,0)
GPGPU-Sim uArch: Shader 14 finished CTA #4 (15752,0), 7 CTAs running
GPGPU-Sim uArch: Shader: 14, cta: 4 initialized @(15753,0), ACTIVE=8, KERNEL=4, STREAM=2
GPGPU-Sim uArch: Shader 15 finished CTA #1 (15802,0), 7 CTAs running
GPGPU-Sim uArch: Shader: 15, cta: 1 initialized @(15803,0), ACTIVE=8, KERNEL=4, STREAM=2
GPGPU-Sim PTX: 10900000 instructions simulated : ctaid=(10,7,0) tid=(6,1,1)
GPGPU-Sim uArch: Shader 15 finished CTA #2 (15848,0), 7 CTAs running
GPGPU-Sim uArch: Shader: 15, cta: 2 initialized @(15849,0), ACTIVE=8, KERNEL=4, STREAM=2
GPGPU-Sim uArch: Shader 17 finished CTA #4 (15894,0), 7 CTAs running
GPGPU-Sim uArch: Shader: 17, cta: 4 initialized @(15895,0), ACTIVE=8, KERNEL=4, STREAM=2
GPGPU-Sim uArch: Shader 55 finished CTA #0 (15961,0), 6 CTAs running
GPGPU-Sim uArch: Shader: 55, cta: 0 initialized @(15962,0), ACTIVE=7, KERNEL=5, STREAM=3
GPGPU-Sim PTX: 11000000 instructions simulated : ctaid=(15,1,0) tid=(16,0,0)
GPGPU-Sim uArch: cycles simulated: 16000  inst.: 10844822 (ipc=677.8) sim_rate=293103 (inst/sec) elapsed = 0:0:00:37 / Sat Sep 16 10:33:53 2017
gpu_sim_insn_1 = 4106262 (ipc=256.7, lat=) 
gpu_sim_insn_2 = 1294944 (ipc=80.9, lat=) 
gpu_sim_insn_3 = 5443616 (ipc=340.2, lat=) 
GPGPU-Sim PTX: 11100000 instructions simulated : ctaid=(32,0,0) tid=(43,0,0)
GPGPU-Sim uArch: Shader 15 finished CTA #4 (16243,0), 7 CTAs running
GPGPU-Sim uArch: Shader: 15, cta: 4 initialized @(16244,0), ACTIVE=8, KERNEL=4, STREAM=2
GPGPU-Sim PTX: 11200000 instructions simulated : ctaid=(3,8,0) tid=(3,0,1)
GPGPU-Sim uArch: Shader 15 finished CTA #3 (16312,0), 7 CTAs running
GPGPU-Sim uArch: Shader: 15, cta: 3 initialized @(16313,0), ACTIVE=8, KERNEL=4, STREAM=2
GPGPU-Sim uArch: Shader 15 finished CTA #6 (16372,0), 7 CTAs running
GPGPU-Sim uArch: Shader: 15, cta: 6 initialized @(16373,0), ACTIVE=8, KERNEL=4, STREAM=2
GPGPU-Sim uArch: Shader 15 finished CTA #5 (16383,0), 7 CTAs running
GPGPU-Sim uArch: Shader: 15, cta: 5 initialized @(16384,0), ACTIVE=8, KERNEL=4, STREAM=2
GPGPU-Sim uArch: Shader 25 finished CTA #2 (16408,0), 6 CTAs running
GPGPU-Sim uArch: Shader: 25, cta: 2 initialized @(16409,0), ACTIVE=7, KERNEL=5, STREAM=3
GPGPU-Sim uArch: Shader 17 finished CTA #6 (16409,0), 7 CTAs running
GPGPU-Sim uArch: Shader: 17, cta: 6 initialized @(16410,0), ACTIVE=8, KERNEL=4, STREAM=2
GPGPU-Sim uArch: Shader 15 finished CTA #7 (16428,0), 7 CTAs running
GPGPU-Sim uArch: Shader: 15, cta: 7 initialized @(16429,0), ACTIVE=8, KERNEL=4, STREAM=2
GPGPU-Sim PTX: 11300000 instructions simulated : ctaid=(167,0,0) tid=(82,0,0)
GPGPU-Sim uArch: Shader 25 finished CTA #1 (16438,0), 6 CTAs running
GPGPU-Sim uArch: Shader: 25, cta: 1 initialized @(16439,0), ACTIVE=7, KERNEL=5, STREAM=3
GPGPU-Sim uArch: cycles simulated: 16500  inst.: 11166912 (ipc=676.8) sim_rate=293866 (inst/sec) elapsed = 0:0:00:38 / Sat Sep 16 10:33:54 2017
gpu_sim_insn_1 = 4343296 (ipc=263.2, lat=) 
gpu_sim_insn_2 = 1315584 (ipc=79.7, lat=) 
gpu_sim_insn_3 = 5508032 (ipc=333.8, lat=) 
GPGPU-Sim uArch: Shader 17 finished CTA #7 (16503,0), 7 CTAs running
GPGPU-Sim uArch: Shader: 17, cta: 7 initialized @(16504,0), ACTIVE=8, KERNEL=4, STREAM=2
GPGPU-Sim uArch: Shader 17 finished CTA #5 (16574,0), 7 CTAs running
GPGPU-Sim uArch: Shader: 17, cta: 5 initialized @(16575,0), ACTIVE=8, KERNEL=4, STREAM=2
GPGPU-Sim PTX: 11400000 instructions simulated : ctaid=(12,0,0) tid=(0,0,0)
GPGPU-Sim uArch: Shader 55 finished CTA #1 (16717,0), 6 CTAs running
GPGPU-Sim uArch: Shader: 55, cta: 1 initialized @(16718,0), ACTIVE=7, KERNEL=5, STREAM=3
GPGPU-Sim PTX: 11500000 instructions simulated : ctaid=(25,0,0) tid=(31,0,0)
GPGPU-Sim uArch: Shader 19 finished CTA #1 (16864,0), 7 CTAs running
GPGPU-Sim uArch: Shader: 19, cta: 1 initialized @(16865,0), ACTIVE=8, KERNEL=4, STREAM=2
GPGPU-Sim uArch: Shader 35 finished CTA #0 (16869,0), 6 CTAs running
GPGPU-Sim uArch: Shader: 35, cta: 0 initialized @(16870,0), ACTIVE=7, KERNEL=5, STREAM=3
GPGPU-Sim PTX: 11600000 instructions simulated : ctaid=(19,0,0) tid=(16,0,0)
GPGPU-Sim uArch: Shader 21 finished CTA #0 (16916,0), 6 CTAs running
GPGPU-Sim uArch: Shader: 21, cta: 0 initialized @(16917,0), ACTIVE=7, KERNEL=5, STREAM=3
GPGPU-Sim uArch: cycles simulated: 17000  inst.: 11503631 (ipc=676.7) sim_rate=294964 (inst/sec) elapsed = 0:0:00:39 / Sat Sep 16 10:33:55 2017
gpu_sim_insn_1 = 4584335 (ipc=269.7, lat=) 
gpu_sim_insn_2 = 1336064 (ipc=78.6, lat=) 
gpu_sim_insn_3 = 5583232 (ipc=328.4, lat=) 
GPGPU-Sim PTX: 11700000 instructions simulated : ctaid=(23,1,0) tid=(24,0,0)
GPGPU-Sim uArch: Shader 14 finished CTA #6 (17189,0), 7 CTAs running
GPGPU-Sim uArch: Shader: 14, cta: 6 initialized @(17190,0), ACTIVE=8, KERNEL=4, STREAM=2
GPGPU-Sim PTX: 11800000 instructions simulated : ctaid=(161,0,0) tid=(66,0,0)
GPGPU-Sim uArch: Shader 10 finished CTA #3 (17238,0), 7 CTAs running
GPGPU-Sim uArch: Shader: 10, cta: 3 initialized @(17239,0), ACTIVE=8, KERNEL=4, STREAM=2
GPGPU-Sim uArch: Shader 14 finished CTA #5 (17246,0), 7 CTAs running
GPGPU-Sim uArch: Shader: 14, cta: 5 initialized @(17247,0), ACTIVE=8, KERNEL=4, STREAM=2
GPGPU-Sim uArch: Shader 14 finished CTA #7 (17250,0), 7 CTAs running
GPGPU-Sim uArch: Shader: 14, cta: 7 initialized @(17251,0), ACTIVE=8, KERNEL=4, STREAM=2
GPGPU-Sim uArch: Shader 10 finished CTA #2 (17310,0), 7 CTAs running
GPGPU-Sim uArch: Shader: 10, cta: 2 initialized @(17311,0), ACTIVE=8, KERNEL=4, STREAM=2
GPGPU-Sim uArch: Shader 35 finished CTA #1 (17321,0), 6 CTAs running
GPGPU-Sim uArch: Shader: 35, cta: 1 initialized @(17322,0), ACTIVE=7, KERNEL=5, STREAM=3
GPGPU-Sim PTX: 11900000 instructions simulated : ctaid=(29,0,0) tid=(3,0,0)
GPGPU-Sim PTX: 12000000 instructions simulated : ctaid=(244,0,0) tid=(90,0,0)
GPGPU-Sim uArch: Shader 10 finished CTA #4 (17478,0), 7 CTAs running
GPGPU-Sim uArch: Shader: 10, cta: 4 initialized @(17479,0), ACTIVE=8, KERNEL=4, STREAM=2
GPGPU-Sim uArch: cycles simulated: 17500  inst.: 11832237 (ipc=676.1) sim_rate=295805 (inst/sec) elapsed = 0:0:00:40 / Sat Sep 16 10:33:56 2017
gpu_sim_insn_1 = 4821133 (ipc=275.5, lat=) 
gpu_sim_insn_2 = 1366464 (ipc=78.1, lat=) 
gpu_sim_insn_3 = 5644640 (ipc=322.6, lat=) 
GPGPU-Sim uArch: Shader 19 finished CTA #2 (17544,0), 7 CTAs running
GPGPU-Sim uArch: Shader: 19, cta: 2 initialized @(17545,0), ACTIVE=8, KERNEL=4, STREAM=2
GPGPU-Sim uArch: Shader 48 finished CTA #0 (17603,0), 6 CTAs running
GPGPU-Sim uArch: Shader: 48, cta: 0 initialized @(17604,0), ACTIVE=7, KERNEL=5, STREAM=3
GPGPU-Sim PTX: 12100000 instructions simulated : ctaid=(28,1,0) tid=(37,0,0)
GPGPU-Sim uArch: Shader 10 finished CTA #5 (17647,0), 7 CTAs running
GPGPU-Sim uArch: Shader: 10, cta: 5 initialized @(17648,0), ACTIVE=8, KERNEL=4, STREAM=2
GPGPU-Sim PTX: 12200000 instructions simulated : ctaid=(116,0,0) tid=(103,0,0)
GPGPU-Sim PTX: 12300000 instructions simulated : ctaid=(39,0,0) tid=(55,0,0)
GPGPU-Sim uArch: cycles simulated: 18000  inst.: 12185717 (ipc=677.0) sim_rate=297212 (inst/sec) elapsed = 0:0:00:41 / Sat Sep 16 10:33:57 2017
gpu_sim_insn_1 = 5057781 (ipc=281.0, lat=) 
gpu_sim_insn_2 = 1385824 (ipc=77.0, lat=) 
gpu_sim_insn_3 = 5742112 (ipc=319.0, lat=) 
GPGPU-Sim PTX: 12400000 instructions simulated : ctaid=(1,1,0) tid=(30,0,0)
GPGPU-Sim uArch: Shader 51 finished CTA #0 (18062,0), 6 CTAs running
GPGPU-Sim uArch: Shader: 51, cta: 0 initialized @(18063,0), ACTIVE=7, KERNEL=5, STREAM=3
GPGPU-Sim PTX: 12500000 instructions simulated : ctaid=(17,1,0) tid=(0,0,0)
GPGPU-Sim uArch: Shader 10 finished CTA #6 (18212,0), 7 CTAs running
GPGPU-Sim uArch: Shader: 10, cta: 6 initialized @(18213,0), ACTIVE=8, KERNEL=4, STREAM=2
GPGPU-Sim uArch: Shader 10 finished CTA #7 (18268,0), 7 CTAs running
GPGPU-Sim uArch: Shader: 10, cta: 7 initialized @(18269,0), ACTIVE=8, KERNEL=4, STREAM=2
GPGPU-Sim PTX: 12600000 instructions simulated : ctaid=(2,0,0) tid=(47,0,0)
GPGPU-Sim uArch: Shader 19 finished CTA #4 (18398,0), 7 CTAs running
GPGPU-Sim uArch: Shader: 19, cta: 4 initialized @(18399,0), ACTIVE=8, KERNEL=4, STREAM=2
GPGPU-Sim uArch: Shader 27 finished CTA #0 (18445,0), 6 CTAs running
GPGPU-Sim uArch: Shader: 27, cta: 0 initialized @(18446,0), ACTIVE=7, KERNEL=5, STREAM=3
GPGPU-Sim PTX: 12700000 instructions simulated : ctaid=(28,0,0) tid=(41,0,0)
GPGPU-Sim uArch: cycles simulated: 18500  inst.: 12544653 (ipc=678.1) sim_rate=291736 (inst/sec) elapsed = 0:0:00:43 / Sat Sep 16 10:33:59 2017
gpu_sim_insn_1 = 5293741 (ipc=286.2, lat=) 
gpu_sim_insn_2 = 1423392 (ipc=76.9, lat=) 
gpu_sim_insn_3 = 5827520 (ipc=315.0, lat=) 
GPGPU-Sim uArch: Shader 57 finished CTA #0 (18551,0), 6 CTAs running
GPGPU-Sim uArch: Shader: 57, cta: 0 initialized @(18552,0), ACTIVE=7, KERNEL=5, STREAM=3
GPGPU-Sim PTX: 12800000 instructions simulated : ctaid=(44,0,0) tid=(96,0,0)
GPGPU-Sim uArch: Shader 19 finished CTA #3 (18619,0), 7 CTAs running
GPGPU-Sim uArch: Shader: 19, cta: 3 initialized @(18620,0), ACTIVE=8, KERNEL=4, STREAM=2
GPGPU-Sim uArch: Shader 49 finished CTA #0 (18642,0), 6 CTAs running
GPGPU-Sim uArch: Shader: 49, cta: 0 initialized @(18643,0), ACTIVE=7, KERNEL=5, STREAM=3
